*Heading
** Job name: 0422_Bolt_05 Model name: Model-2-Bolt
** Generated by: Abaqus/CAE 2022
*Preprint, echo=NO, model=NO, history=NO, contact=NO
**
** PARTS
**
*Part, name=DSS_Hole
*Node
      1,           0.,          30.,           5.
      2,        -120.,          30.,           5.
      3,        -120.,          30.,           0.
      4,           0.,          30.,           0.
      5,        -120.,          60.,           5.
      6,        -120.,          60.,           0.
      7,           0.,          60.,           0.
      8,           0.,          60.,           5.
      9,        -312.,          60.,           5.
     10,        -312.,          60.,          10.
     11,        -120.,          60.,          10.
     12,        -312.,          30.,           5.
     13,        -312.,          30.,          10.
     14,        -120.,          30.,          10.
     15,        -360.,          60.,           5.
     16,        -360.,          38.,           5.
     17,        -352.,          30.,           5.
     18,        -352.,          30.,          10.
     19,        -360.,          38.,          10.
     20,        -360.,          60.,          10.
** ... 10718 like lines cut
*Element, type=C3D8R
  1,  117,  953, 5675,  897,    1,   38,  853,   63
  2,  953,  954, 5676, 5675,   38,   39,  854,  853
  3,  954,  955, 5677, 5676,   39,   40,  855,  854
  4,  955,  956, 5678, 5677,   40,   41,  856,  855
  5,  956,  957, 5679, 5678,   41,   42,  857,  856
  6,  957,  958, 5680, 5679,   42,   43,  858,  857
  7,  958,  959, 5681, 5680,   43,   44,  859,  858
  8,  959,  960, 5682, 5681,   44,   45,  860,  859
  9,  960,  961, 5683, 5682,   45,   46,  861,  860
 10,  961,  962, 5684, 5683,   46,   47,  862,  861
 11,  962,  963, 5685, 5684,   47,   48,  863,  862
 12,  963,  145,  925, 5685,   48,    2,   49,  863
 13,  897, 5675, 5686,  898,   63,  853,  864,   62
 14, 5675, 5676, 5687, 5686,  853,  854,  865,  864
 15, 5676, 5677, 5688, 5687,  854,  855,  866,  865
 16, 5677, 5678, 5689, 5688,  855,  856,  867,  866
 17, 5678, 5679, 5690, 5689,  856,  857,  868,  867
 18, 5679, 5680, 5691, 5690,  857,  858,  869,  868
 19, 5680, 5681, 5692, 5691,  858,  859,  870,  869
 20, 5681, 5682, 5693, 5692,  859,  860,  871,  870
** ... 8494 like lines cut
*Nset, nset=_PickedSet31, internal, generate
     1,  10738,      1
*Elset, elset=_PickedSet31, internal, generate
    1,  8514,     1
** Section: DSS
*Solid Section, elset=_PickedSet31, material=DSS1
,
*End Part
**  
*Part, name=GFRP_Hole
*Node
      1,         192.,          30.,           1.
      2,         192.,          60.,           1.
      3,         192.,          60.,           0.
      4,         192.,          30.,           0.
      5,         312.,          30.,           1.
      6,         312.,          60.,           1.
      7,         312.,          60.,           0.
      8,         312.,          30.,           0.
      9,         192.,          30.,           2.
     10,         192.,          60.,           2.
     11,         312.,          30.,           2.
     12,         312.,          60.,           2.
     13,         192.,          30.,           3.
     14,         192.,          60.,           3.
     15,         312.,          30.,           3.
     16,         312.,          60.,           3.
     17,         192.,          30.,           4.
     18,         192.,          60.,           4.
     19,         312.,          30.,           4.
     20,         312.,          60.,           4.
** ... 19087 like lines cut
*Element, type=C3D8R
   1,   221,  1991, 11938,  1919,     1,    86,  1889,   117
   2,  1991,  1992, 11939, 11938,    86,    87,  1890,  1889
   3,  1992,  1993, 11940, 11939,    87,    88,  1891,  1890
   4,  1993,  1994, 11941, 11940,    88,    89,  1892,  1891
   5,  1994,  1995, 11942, 11941,    89,    90,  1893,  1892
   6,  1995,  1996, 11943, 11942,    90,    91,  1894,  1893
   7,  1996,  1997, 11944, 11943,    91,    92,  1895,  1894
   8,  1997,  1998, 11945, 11944,    92,    93,  1896,  1895
   9,  1998,  1999, 11946, 11945,    93,    94,  1897,  1896
  10,  1999,  2000, 11947, 11946,    94,    95,  1898,  1897
  11,  2000,  2001, 11948, 11947,    95,    96,  1899,  1898
  12,  2001,  2002, 11949, 11948,    96,    97,  1900,  1899
  13,  2002,  2003, 11950, 11949,    97,    98,  1901,  1900
  14,  2003,  2004, 11951, 11950,    98,    99,  1902,  1901
  15,  2004,  2005, 11952, 11951,    99,   100,  1903,  1902
  16,  2005,   258,  1955, 11952,   100,     2,   101,  1903
  17,  1919, 11938,  2531,   150,   117,  1889,   116,     4
  18, 11938, 11939,  2532,  2531,  1889,  1890,   115,   116
  19, 11939, 11940,  2533,  2532,  1890,  1891,   114,   115
  20, 11940, 11941,  2534,  2533,  1891,  1892,   113,   114
** ... 16110 like lines cut
*Nset, nset=_PickedSet58, internal, generate
     1,  19107,      1
*Elset, elset=_PickedSet58, internal, generate
     1,  16130,      1
*Orientation, name=Ori-1
          1.,           0.,           0.,           0.,           1.,           0.
3, 0.
** Section: GFRP
*Solid Section, elset=_PickedSet58, orientation=Ori-1, controls=EC-1, material=VUMAT-GFRP-0422-02
,
*End Part
**  
*Part, name=Part-4
*Node
      1,           0.,    7.9000001,          0.5
      2,           0.,           0.,          0.5
      3,   -7.9000001,           0.,          0.5
      4,           0.,           0.,         15.5
      5,           0.,    7.9000001,         15.5
      6,   -7.9000001,           0.,         15.5
      7,    7.9000001,           0.,          0.5
      8,    7.9000001,           0.,         15.5
      9,           0.,          12.,         15.5
     10,          12.,           0.,         15.5
     11,           0.,          12.,         29.5
     12,           0.,           0.,         29.5
     13,          12.,           0.,         29.5
     14,         -12.,           0.,         15.5
     15,         -12.,           0.,         29.5
     16,  -7.77998114,   1.37182057,          0.5
     17,  -7.42357159,   2.70195913,          0.5
     18,  -6.84160089,   3.95000005,          0.5
     19,  -6.05175114,     5.078022,          0.5
     20,    -5.078022,   6.05175114,          0.5
** ... 1372 like lines cut
*Element, type=C3D8R
  1, 237, 238, 747, 738,  21,  22, 178, 177
  2, 238, 239, 748, 747,  22,  23, 179, 178
  3, 239,  36, 195, 748,  23,   1,  24, 179
  4, 240, 241, 749, 737, 237, 238, 747, 738
  5, 241, 242, 750, 749, 238, 239, 748, 747
  6, 242,  35, 196, 750, 239,  36, 195, 748
  7, 243, 244, 751, 736, 240, 241, 749, 737
  8, 244, 245, 752, 751, 241, 242, 750, 749
  9, 245,  34, 197, 752, 242,  35, 196, 750
 10, 246, 247, 735, 733, 243, 244, 751, 736
 11, 247, 248, 734, 735, 244, 245, 752, 751
 12, 248,  33, 198, 734, 245,  34, 197, 752
 13, 195, 199, 799, 748,  24,  25, 180, 179
 14, 199, 200, 800, 799,  25,  26, 181, 180
 15, 200, 201, 801, 800,  26,  27, 182, 181
 16, 201, 202, 802, 801,  27,  28, 183, 182
 17, 202, 203, 803, 802,  28,  29, 184, 183
 18, 203,  40, 293, 803,  29,   2,  37, 184
 19, 748, 799, 804, 747, 179, 180, 185, 178
 20, 799, 800, 805, 804, 180, 181, 186, 185
** ... 1042 like lines cut
*Nset, nset=_PickedSet15, internal, generate
    1,  1392,     1
*Elset, elset=_PickedSet15, internal, generate
    1,  1062,     1
** Section: Bolt
*Solid Section, elset=_PickedSet15, material=Bolts2_Preload
,
*End Part
**  
**
** ASSEMBLY
**
*Assembly, name=Assembly
**  
*Instance, name=DSS_Hole-1, part=DSS_Hole
       -360.,          30.,           5.
       -360.,          30.,           5.,        -360.,          30.,           6.,         180.
*End Instance
**  
*Instance, name=GFRP_Hole-1, part=GFRP_Hole
        352.,          30.,           0.
        352.,          30.,           0.,         352.,          30.,           1.,         180.
*End Instance
**  
*Instance, name=Part-4-2, part=Part-4
         0.1,           0.,         -0.5
         0.1,           0.,         -0.5,          0.1,           0.,          0.5,         180.
*End Instance
**  
*Node
      1,         352.,         -15.,          2.5
*Node
      2,        -352.,         -15.,         10.5
*Nset, nset=Bolt_HalfHalf, instance=Part-4-2
    4,    5,    6,    8,    9,   10,   11,   12,   13,   14,   15,   54,   55,   56,   57,   58
   59,   60,   61,   62,   63,   64,   65,   66,   67,   68,   69,   70,   89,   90,   91,   92
   93,   94,   95,   96,   97,   98,   99,  100,  101,  102,  103,  104,  105,  106,  107,  108
  109,  110,  111,  112,  113,  114,  115,  116,  117,  118,  119,  120,  121,  122,  123,  124
  125,  126,  127,  128,  129,  130,  131,  132,  133,  134,  135,  136,  137,  138,  139,  140
  141,  142,  143,  144,  145,  146,  147,  148,  149,  150,  151,  152,  153,  154,  155,  156
  157,  158,  159,  160,  161,  162,  163,  164,  165,  166,  167,  168,  169,  170,  171,  172
  173,  174,  175,  176,  314,  315,  316,  317,  318,  319,  320,  321,  322,  323,  324,  325
  326,  327,  328,  329,  330,  331,  427,  428,  429,  430,  431,  432,  433,  434,  435,  436
  437,  438,  439,  440,  441,  442,  443,  444,  445,  446,  447,  448,  449,  450,  451,  452
  453,  454,  455,  456,  457,  458,  459,  460,  461,  462,  463,  464,  465,  466,  467,  468
  469,  470,  471,  472,  473,  474,  475,  476,  477,  478,  479,  480,  481,  482,  483,  484
  485,  486,  487,  488,  489,  490,  491,  492,  493,  494,  495,  496,  497,  498,  499,  500
  501,  502,  503,  504,  505,  506,  507,  508,  509,  510,  511,  512,  513,  514,  515,  516
  517,  518,  519,  520,  521,  522,  523,  524,  525,  526,  527,  528,  529,  530,  531,  532
  533,  534,  535,  536,  537,  538,  539,  540,  541,  542,  543,  544,  545,  546,  547,  548
  549,  550,  551,  552,  553,  554,  555,  556,  557,  558,  559,  560,  561,  562,  563,  564
  565,  566,  567,  568,  569,  570,  571,  572,  573,  574,  575,  576,  577,  578,  579,  580
  581,  582,  583,  584,  585,  586,  587,  588,  589,  590,  591,  592,  593,  594,  595,  596
  597,  598,  599,  600,  601,  602,  603,  604,  605,  606,  607,  608,  609,  610,  611,  612
** ... 33 like lines cut
*Elset, elset=Bolt_HalfHalf, instance=Part-4-2, generate
  433,  1062,     1
*Nset, nset=LSD1, instance=DSS_Hole-1
 25,
*Nset, nset=LSD2, instance=GFRP_Hole-1
 35,
*Nset, nset=Quart1, instance=DSS_Hole-1
    1,    2,    3,    4,   12,   13,   14,   17,   18,   21,   22,   26,   27,   30,   31,   33
   35,   37,   38,   39,   40,   41,   42,   43,   44,   45,   46,   47,   48,   49,   50,   51
   52,   53,   54,   55,   56,   57,   58,   59,   60,   61,   62,   63,  224,  225,  226,  227
  228,  229,  230,  231,  232,  233,  234,  235,  236,  237,  238,  239,  240,  241,  242,  243
  244,  245,  246,  247,  248,  249,  250,  251,  252,  253,  254,  255,  256,  257,  258,  259
  260,  261,  262,  263,  264,  265,  266,  267,  268,  269,  270,  271,  272,  273,  274,  275
  276,  277,  278,  279,  280,  281,  282,  283,  284,  285,  286,  287,  288,  289,  290,  291
  292,  293,  294,  295,  296,  297,  298,  299,  300,  301,  367,  368,  369,  370,  371,  372
  373,  374,  375,  376,  377,  378,  379,  380,  381,  382,  383,  384,  385,  386,  387,  388
  389,  390,  391,  392,  393,  394,  395,  396,  397,  398,  399,  400,  401,  402,  403,  404
  405,  406,  407,  408,  453,  454,  479,  480,  481,  482,  483,  484,  485,  486,  487,  488
  489,  490,  491,  492,  493,  494,  495,  496,  512,  513,  514,  515,  516,  517,  518,  519
  520,  521,  522,  523,  524,  525,  526,  527,  582,  583,  633,  634,  635,  636,  639,  640
  641,  642,  643,  644,  645,  646,  647,  648,  649,  650,  651,  652,  653,  654,  670,  671
  672,  673,  674,  675,  676,  677,  678,  679,  680,  681,  682,  710,  711,  765,  766,  767
  768,  769,  770,  771,  772,  773,  774,  775,  776,  777,  778,  779,  780,  781,  782,  783
  784,  785,  786,  787,  788,  789,  790,  791,  792,  793,  794,  795,  796,  797,  798,  799
  800,  801,  825,  826,  827,  828,  829,  830,  831,  832,  833,  834,  835,  836,  837,  838
  839,  840,  841,  842,  843,  844,  845,  846,  847,  853,  854,  855,  856,  857,  858,  859
  860,  861,  862,  863,  864,  865,  866,  867,  868,  869,  870,  871,  872,  873,  874, 1335
** ... 20 like lines cut
*Nset, nset=Quart1, instance=GFRP_Hole-1
     1,     4,     5,     8,     9,    11,    13,    15,    17,    19,    23,    24,    26,    28,    30,    31
    32,    36,    37,    38,    39,    46,    47,    51,    52,    56,    57,    58,    59,    66,    68,    69
    70,    71,    72,    73,    75,    76,    79,    81,    83,    84,   117,   149,   150,   151,   152,   153
   154,   155,   156,   157,   158,   159,   160,   161,   162,   163,   164,   165,   166,   167,   168,   169
   170,   171,   172,   173,   174,   175,   176,   177,   178,   179,   180,   181,   182,   183,   184,   185
   186,   187,   188,   189,   190,   191,   192,   193,   194,   195,   196,   197,   198,   199,   200,   201
   202,   203,   204,   205,   206,   207,   208,   209,   210,   211,   212,   213,   214,   215,   216,   217
   218,   219,   220,   221,   310,   327,   328,   329,   330,   331,   332,   333,   334,   335,   336,   337
   338,   339,   340,   341,   342,   343,   344,   345,   346,   347,   348,   349,   350,   351,   352,   353
   354,   355,   356,   357,   358,   359,   360,   361,   362,   363,   416,   433,   434,   435,   436,   437
   438,   439,   440,   441,   442,   443,   444,   445,   446,   447,   448,   449,   450,   451,   452,   453
   454,   455,   456,   457,   458,   459,   460,   461,   462,   463,   464,   465,   466,   467,   468,   469
   522,   539,   540,   541,   542,   543,   544,   545,   546,   547,   548,   549,   550,   551,   552,   553
   554,   555,   556,   557,   558,   559,   560,   561,   562,   563,   564,   565,   566,   567,   568,   569
   570,   571,   572,   573,   574,   575,   643,   644,   645,   646,   647,   648,   649,   650,   651,   652
   653,   654,   655,   656,   657,   658,   659,   660,   661,   696,   697,   698,   699,   700,   701,   702
   703,   704,   705,   731,   732,   733,   734,   735,   736,   737,   738,   739,   740,   766,   767,   768
   769,   770,   771,   772,   773,   774,   775,   785,   786,   787,   788,   789,   790,   791,   792,   793
   794,   795,   836,   837,   838,   839,   840,   841,   842,   843,   844,   845,   846,   847,   848,   849
   850,   851,   852,   853,   854,   855,   856,   857,   863,   878,   879,   880,   881,   882,   883,   884
** ... 49 like lines cut
*Nset, nset=Quart1, instance=Part-4-2
   2,   3,   4,   6,   7,   8,  10,  12,  13,  14,  15,  37,  38,  39,  40,  41
  42,  43,  44,  45,  46,  47,  48,  49,  50,  51,  52,  53,  60,  61,  62,  71
  72,  73,  74,  75,  76,  77,  86,  87,  88,  97,  98,  99, 109, 110, 111, 112
 113, 114, 115, 116, 117, 118, 119, 120, 121, 136, 137, 138, 139, 140, 149, 158
 159, 160, 161, 162, 163, 172, 173, 174, 175, 176, 293, 294, 295, 296, 297, 298
 299, 300, 301, 302, 303, 304, 305, 306, 307, 308, 309, 310, 311, 312, 313, 406
 407, 408, 409, 410, 411, 412, 413, 414, 415, 416, 417, 418, 419, 420, 421, 422
 423, 424, 425, 426, 487, 488, 489, 490, 491, 492, 493, 494, 495, 496, 497, 498
 499, 500, 501, 502, 503, 504, 505, 506, 507, 508, 509, 510, 511, 512, 513, 514
 515, 516, 655, 656, 657, 658, 659, 660, 661, 662, 663, 664, 665, 666, 667, 668
 669, 670, 671, 672, 673, 674, 675, 676, 677, 678, 679, 680, 681, 682, 683, 684
*Elset, elset=Quart1, instance=DSS_Hole-1
    1,    2,    3,    4,    5,    6,    7,    8,    9,   10,   11,   12,   13,   14,   15,   16
   17,   18,   19,   20,   21,   22,   23,   24,   25,   26,   27,   28,   29,   30,   31,   32
   33,   34,   35,   36, 2137, 2138, 2139, 2140, 2141, 2142, 2143, 2144, 2145, 2146, 2147, 2148
 2149, 2150, 2151, 2152, 2153, 2154, 2155, 2156, 2157, 2158, 2159, 2160, 2161, 2162, 2163, 2164
 2165, 2166, 2167, 2168, 2169, 2170, 2171, 2172, 2173, 2174, 2175, 2176, 2177, 2178, 2179, 2180
 2181, 2182, 2183, 2184, 2185, 2186, 2187, 2188, 2189, 2190, 2191, 2192, 2193, 2194, 2195, 2196
 2197, 2198, 2199, 2200, 2201, 2202, 2203, 2204, 2205, 2206, 2207, 2208, 2209, 2210, 2211, 2212
 2213, 2214, 2215, 2216, 2217, 2218, 2219, 2220, 2221, 2222, 2223, 2224, 2225, 2226, 2227, 2228
 2229, 2230, 2231, 2232, 2233, 2234, 2235, 2236, 2237, 2238, 2239, 2240, 2241, 2242, 2243, 2244
 2245, 2246, 2247, 2248, 2249, 2250, 2755, 2756, 2761, 2762, 2767, 2768, 2773, 2774, 2779, 2780
 2785, 2786, 2791, 2792, 2797, 2798, 2803, 2804, 2809, 2810, 2815, 2816, 2821, 2822, 2827, 2828
 2833, 2834, 2839, 2840, 2845, 2846, 2851, 2852, 2857, 2858, 2863, 2864, 2869, 2870, 2875, 2876
 2883, 2886, 2889, 2892, 2895, 2898, 2901, 2904, 2907, 2910, 2913, 2916, 2919, 2922, 2925, 2928
 2931, 2934, 2937, 2940, 2943, 3274, 3277, 3280, 3325, 3329, 3333, 3337, 3341, 3345, 3349, 3353
 3357, 3361, 3365, 3369, 3373, 3377, 3381, 3385, 3389, 3393, 3397, 3401, 3405, 3409, 3413, 3417
 3421, 3425, 3429, 3433, 3437, 3441, 3445, 3449, 3450, 3454, 3458, 3462, 3466, 3470, 3474, 3478
 3482, 3486, 3490, 3494, 3498, 3502, 3506, 3510, 4197, 4201, 4209, 4414, 4418, 4425, 4429, 4433
 4437, 4441, 4445, 4449, 4453, 4457, 4461, 4465, 4469, 4473, 4477, 4481, 4485, 4489, 4493, 4497
 4501, 4505, 4509, 4513, 4517, 4521, 4525, 4529, 4533, 4537, 4541, 4545, 4549, 4934, 4938, 4939
 4940, 4941, 4942, 4943, 4944, 4945, 4946, 4947, 4948, 4949, 4950, 4951, 4952, 4953, 5194, 5195
** ... 14 like lines cut
*Elset, elset=Quart1, instance=GFRP_Hole-1
     1,    17,    33,    49,    65,    81,    97,   113,   129,   145,   161,   177,   193,   209,   225,   241
   257,   273,   289,   305,   321,   337,   353,   369,   385,   401,   417,   433,   449,   465,   481,   497
   513,   529,   545,   561,   577,   593,   609,   625,   641,   657,   673,   689,   705,   721,   737,   753
   769,   785,   801,   817,   833,   849,   865,   881,   897,   913,   929,   945,   961,   977,   993,  1009
  1025,  1041,  1057,  1073,  1089,  1105,  1121,  1137,  1153,  1169,  1185,  1201,  1217,  1233,  1249,  1265
  1281,  1297,  1313,  1329,  1345,  1361,  1377,  1393,  1409,  1425,  1441,  1457,  1473,  1489,  1505,  1521
  1537,  1553,  1569,  1585,  1601,  1617,  1633,  1649,  1665,  1681,  1697,  1713,  1729,  1745,  1761,  1777
  1793,  1809,  1825,  1841,  1857,  1873,  1889,  1905,  1921,  1937,  1953,  1969,  1985,  2001,  2017,  2033
  2049,  2065,  2081,  2097,  2113,  2129,  2145,  2161,  2177,  2193,  2209,  2225,  2241,  2257,  2273,  2289
  2305,  2321,  2337,  2353,  2369,  2385,  2401,  2417,  2433,  2449,  2465,  2481,  2497,  2513,  2529,  2545
  2561,  2577,  2593,  2609,  2625,  2641,  2657,  2673,  2689,  2705,  2721,  2737,  2753,  2769,  2785,  2801
  2817,  2833,  2849,  2865,  2881,  2897,  2913,  2929,  2945,  2961,  2977,  2993,  3009,  3025,  3041,  3057
  3073,  3089,  3105,  3121,  3137,  3153,  3169,  3185,  3201,  3217,  3233,  3249,  3265,  3281,  3297,  3313
  3329,  3345,  3361,  3377,  3393,  3409,  3425,  3441,  3457,  3473,  3489,  3505,  3521,  3537,  3553,  3569
  3585,  3601,  3617,  3633,  3649,  3665,  3681,  3697,  3713,  3729,  3745,  3761,  3777,  3793,  3809,  3825
  3841,  3857,  3873,  3889,  3905,  3921,  3937,  3953,  3969,  3985,  4001,  4017,  4033,  4049,  4065,  4081
  4097,  4113,  4129,  4145,  4161,  4177,  4193,  4209,  4225,  4241,  4257,  4273,  4289,  4305,  4321,  4337
  4353,  4369,  4385,  4401,  4417,  4433,  4449,  4465,  4481,  4497,  4513,  4529,  4545,  4561,  4577,  4593
  4609,  4625,  4641,  4657,  4673,  4689,  4705,  4721,  4737,  4753,  4769,  4785,  4801,  4817,  4833,  4849
  4865,  4881,  4897,  4913,  4929,  4945,  4961,  4977,  4993,  5009,  5025,  5041,  5057,  5073,  5089,  5105
** ... 42 like lines cut
*Elset, elset=Quart1, instance=Part-4-2
   18,   24,   30,   36,   42,   48,   54,   60,   66,   72,   78,   84,   85,   91,   97,  103
  114,  120,  126,  132,  138,  144,  150,  156,  162,  168,  174,  180,  193,  194,  195,  196
  217,  218,  219,  220,  270,  276,  282,  288,  289,  290,  291,  307,  308,  309,  325,  326
  327,  343,  344,  345,  361,  362,  363,  364,  365,  366,  367,  368,  369,  370,  371,  372
  441,  442,  443,  444,  476,  477,  486,  487,  488,  489,  521,  522,  531,  532,  533,  534
  566,  567,  576,  577,  578,  579,  611,  612,  621,  622,  623,  624,  656,  657,  666,  667
  668,  669,  701,  702,  711,  712,  713,  714,  746,  747,  753,  759,  765,  769,  791,  792
  798,  804,  810,  814,  836,  837,  843,  849,  855,  859,  881,  882,  888,  894,  900,  904
  926,  927,  933,  939,  945,  949,  971,  972,  978,  984,  990,  994, 1016, 1017, 1023, 1029
 1035, 1039, 1061, 1062
*Nset, nset=Quart2, instance=GFRP_Hole-1
     3,     4,     7,     8,    22,    23,    58,    59,    63,    64,    65,    73,    84,    85,   102,   103
   104,   105,   106,   107,   108,   109,   110,   111,   112,   113,   114,   115,   116,   134,   135,   136
   137,   138,   139,   140,   141,   142,   143,   144,   145,   146,   147,   148,   150,   151,   152,   153
   154,   155,   156,   157,   158,   159,   160,   161,   162,   163,   164,   165,   166,   167,   168,   169
   170,   171,   172,   173,   174,   175,   176,   177,   178,   179,   180,   181,   182,   183,   184,   185
   222,   223,   224,   225,   226,   227,   228,   229,   230,   231,   232,   233,   234,   235,   236,   237
   238,   239,   240,   241,   242,   243,   244,   245,   246,   247,   248,   249,   250,   251,   252,   253
   254,   255,   256,   257,   628,   629,   630,   631,   632,   633,   634,   635,   636,   637,   638,   639
   640,   641,   642,   644,   645,   646,   647,   648,   649,   650,   651,   652,   662,   663,   664,   665
   666,   667,   668,   669,   670,  1193,  1194,  1195,  1196,  1197,  1198,  1199,  1200,  1201,  1202,  1203
  1204,  1205,  1206,  1207,  1208,  1209,  1210,  1211,  1212,  1213,  1214,  1215,  1216,  1217,  1218,  1219
  1220,  1221,  1222,  1223,  1224,  1225,  1226,  1227,  1228,  1229,  1230,  1231,  1232,  1271,  1272,  1273
  1274,  1275,  1276,  1277,  1278,  1279,  1280,  1281,  1282,  1283,  1284,  1285,  1286,  1287,  1288,  1289
  1290,  1291,  1292,  1293,  1294,  1295,  1296,  1297,  1298,  1299,  1300,  1301,  1302,  1303,  1304,  1305
  1494,  1495,  1496,  1497,  1498,  1499,  1500,  1525,  1526,  1527,  1528,  1529,  1530,  1531,  1532,  1533
  1534,  1535,  1536,  1537,  1538,  1539,  1540,  1560,  1561,  1562,  1563,  1564,  1565,  1566,  1567,  1568
  1569,  1570,  1571,  1572,  1573,  1574,  1575,  1576,  1577,  1578,  1850,  1851,  1852,  1853,  1854,  1855
  1856,  1857,  1858,  1859,  1860,  1861,  1862,  1863,  1864,  1865,  1866,  1867,  1868,  1869,  1870,  1871
  1872,  1873,  1874,  1875,  1876,  1877,  1878,  1879,  1880,  1881,  1882,  1883,  1884,  1885,  1886,  2531
  2532,  2533,  2534,  2535,  2536,  2537,  2538,  2539,  2540,  2541,  2542,  2543,  2544,  2545,  2546,  2547
** ... 89 like lines cut
*Nset, nset=Quart2, instance=Part-4-2
   1,   2,   3,   7,  16,  17,  18,  19,  20,  21,  22,  23,  24,  25,  26,  27
  28,  29,  37,  38,  39,  78,  79,  80,  81,  82,  83,  84,  85,  86,  87,  88
 177, 178, 179, 180, 181, 182, 183, 184, 185, 186, 187, 188, 189, 190, 191, 192
 193, 194, 388, 389, 390, 391, 392, 393, 394, 395, 396, 397, 398, 399, 400, 401
 402, 403, 404, 405
*Elset, elset=Quart2, instance=GFRP_Hole-1
    17,    18,    19,    20,    21,    22,    23,    24,    25,    26,    27,    28,    29,    30,    31,    32
    49,    50,    51,    52,    53,    54,    55,    56,    57,    58,    59,    60,    61,    62,    63,    64
    81,    82,    83,    84,    85,    86,    87,    88,    89,    90,    91,    92,    93,    94,    95,    96
   113,   114,   115,   116,   117,   118,   119,   120,   121,   122,   123,   124,   125,   126,   127,   128
   145,   146,   147,   148,   149,   150,   151,   152,   153,   154,   155,   156,   157,   158,   159,   160
   177,   178,   179,   180,   181,   182,   183,   184,   185,   186,   187,   188,   189,   190,   191,   192
   209,   210,   211,   212,   213,   214,   215,   216,   217,   218,   219,   220,   221,   222,   223,   224
   241,   242,   243,   244,   245,   246,   247,   248,   249,   250,   251,   252,   253,   254,   255,   256
   273,   274,   275,   276,   277,   278,   279,   280,   281,   282,   283,   284,   285,   286,   287,   288
   305,   306,   307,   308,   309,   310,   311,   312,   313,   314,   315,   316,   317,   318,   319,   320
   337,   338,   339,   340,   341,   342,   343,   344,   345,   346,   347,   348,   349,   350,   351,   352
   369,   370,   371,   372,   373,   374,   375,   376,   377,   378,   379,   380,   381,   382,   383,   384
   401,   402,   403,   404,   405,   406,   407,   408,   409,   410,   411,   412,   413,   414,   415,   416
   433,   434,   435,   436,   437,   438,   439,   440,   441,   442,   443,   444,   445,   446,   447,   448
   465,   466,   467,   468,   469,   470,   471,   472,   473,   474,   475,   476,   477,   478,   479,   480
   497,   498,   499,   500,   501,   502,   503,   504,   505,   506,   507,   508,   509,   510,   511,   512
   529,   530,   531,   532,   533,   534,   535,   536,   537,   538,   539,   540,   541,   542,   543,   544
   561,   562,   563,   564,   565,   566,   567,   568,   569,   570,   571,   572,   573,   574,   575,   576
   593,   594,   595,   596,   597,   598,   599,   600,   601,   602,   603,   604,   605,   606,   607,   608
   625,   626,   627,   628,   629,   630,   631,   632,   633,   634,   635,   636,   637,   638,   639,   640
** ... 81 like lines cut
*Elset, elset=Quart2, instance=Part-4-2
   1,   2,   3,  13,  14,  15,  16,  17,  18,  19,  20,  21,  22,  23,  24,  25
  26,  27,  28,  29,  30,  85,  86,  87,  88,  89,  90, 220, 224, 228, 232, 236
 240, 241, 242, 243, 289, 290, 291, 292, 293, 294, 295, 296, 297, 298, 299, 300
 301, 302, 303, 304, 305, 306
*Nset, nset=RP_Fixed
 2,
*Nset, nset=RP_Loaded
 1,
*Nset, nset=_PickedSet131, internal, instance=DSS_Hole-1
    1,    2,    3,    4,    5,    6,    7,    8,   11,   14,   33,   34,   38,   39,   40,   41
   42,   43,   44,   45,   46,   47,   48,   49,   50,   51,   52,   53,   54,   55,   56,   57
   58,   59,   60,   61,   62,   63,   64,   65,   66,   67,   68,   69,   70,   71,   72,   73
   74,   75,   76,   77,   78,   79,   80,   81,   82,   83,   84,   85,   86,   87,   88,   89
   90,   91,   92,   93,   94,   95,   96,   97,   98,   99,  100,  101,  102,  103,  104,  105
  106,  107,  108,  109,  110,  111,  112,  113,  114,  115,  116,  117,  118,  119,  120,  121
  122,  123,  124,  125,  126,  127,  128,  129,  130,  131,  132,  133,  134,  135,  136,  137
  138,  139,  140,  141,  142,  143,  144,  145,  222,  223,  300,  301,  302,  303,  304,  305
  306,  307,  308,  309,  310,  311,  312,  313,  314,  315,  670,  671,  672,  673,  674,  675
  676,  677,  678,  679,  680,  681,  682,  683,  684,  685,  686,  687,  688,  689,  690,  691
  692,  693,  694,  695,  696,  697,  698,  699,  700,  701,  702,  703,  704,  705,  706,  707
  708,  709,  853,  854,  855,  856,  857,  858,  859,  860,  861,  862,  863,  864,  865,  866
  867,  868,  869,  870,  871,  872,  873,  874,  875,  876,  877,  878,  879,  880,  881,  882
  883,  884,  885,  886,  887,  888,  889,  890,  891,  892,  893,  894,  895,  896,  897,  898
  899,  900,  901,  902,  903,  904,  905,  906,  907,  908,  909,  910,  911,  912,  913,  914
  915,  916,  917,  918,  919,  920,  921,  922,  923,  924,  925,  926,  927,  928,  929,  930
  931,  932,  933,  934,  935,  936,  937,  938,  939,  940,  941,  942,  943,  944,  945,  946
  947,  948,  949,  950,  951,  952,  953,  954,  955,  956,  957,  958,  959,  960,  961,  962
  963,  964,  965,  966,  967,  968,  969,  970,  971,  972,  973,  974,  975,  976,  977,  978
  979,  980,  981,  982,  983,  984,  985,  986,  987,  988,  989,  990,  991,  992,  993,  994
** ... 71 like lines cut
*Nset, nset=_PickedSet131, internal
 2,
*Elset, elset=_PickedSet131, internal, instance=DSS_Hole-1
    1,    2,    3,    4,    5,    6,    7,    8,    9,   10,   11,   12,   13,   14,   15,   16
   17,   18,   19,   20,   21,   22,   23,   24,   25,   26,   27,   28,   29,   30,   31,   32
   33,   34,   35,   36,   37,   38,   39,   40,   41,   42,   43,   44,   45,   46,   47,   48
   49,   50,   51,   52,   53,   54,   55,   56,   57,   58,   59,   60,   61,   62,   63,   64
   65,   66,   67,   68,   69,   70,   71,   72,   73,   74,   75,   76,   77,   78,   79,   80
   81,   82,   83,   84,   85,   86,   87,   88,   89,   90,   91,   92,   93,   94,   95,   96
   97,   98,   99,  100,  101,  102,  103,  104,  105,  106,  107,  108,  109,  110,  111,  112
  113,  114,  115,  116,  117,  118,  119,  120,  121,  122,  123,  124,  125,  126,  127,  128
  129,  130,  131,  132,  133,  134,  135,  136,  137,  138,  139,  140,  141,  142,  143,  144
  145,  146,  147,  148,  149,  150,  151,  152,  153,  154,  155,  156,  157,  158,  159,  160
  161,  162,  163,  164,  165,  166,  167,  168,  169,  170,  171,  172,  173,  174,  175,  176
  177,  178,  179,  180,  181,  182,  183,  184,  185,  186,  187,  188,  189,  190,  191,  192
  193,  194,  195,  196,  197,  198,  199,  200,  201,  202,  203,  204,  205,  206,  207,  208
  209,  210,  211,  212,  213,  214,  215,  216,  217,  218,  219,  220,  221,  222,  223,  224
  225,  226,  227,  228,  229,  230,  231,  232,  233,  234,  235,  236,  237,  238,  239,  240
  241,  242,  243,  244,  245,  246,  247,  248,  249,  250,  251,  252,  253,  254,  255,  256
  257,  258,  259,  260,  261,  262,  263,  264,  265,  266,  267,  268,  269,  270,  271,  272
  273,  274,  275,  276,  277,  278,  279,  280,  281,  282,  283,  284,  285,  286,  287,  288
  289,  290,  291,  292,  293,  294,  295,  296,  297,  298,  299,  300,  301,  302,  303,  304
  305,  306,  307,  308,  309,  310,  311,  312,  313,  314,  315,  316,  317,  318,  319,  320
** ... 48 like lines cut
*Nset, nset=_PickedSet133, internal, instance=GFRP_Hole-1
    74,    75,    76,    77,    78,    79,    80,    81,    82,    83,    84,    85,  1585,  1586,  1587,  1588
  1589,  1590,  1591,  1592,  1593,  1594,  1595,  1596,  1597,  1598,  1599,  1600,  1601,  1602,  1603,  1604
  1605,  1606,  1607,  1608,  1609,  1610,  1611,  1612,  1613,  1614,  1615,  1616,  1661,  1662,  1663,  1664
  1665,  1666,  1667,  1668,  1669,  1670,  1671,  1672,  1673,  1674,  1675,  1676,  1677,  1700,  1701,  1702
  1703,  1704,  1705,  1706,  1707,  1708,  1709,  1710,  1711,  1712,  1713,  1714,  1715,  1716,  1739,  1740
  1741,  1742,  1743,  1744,  1745,  1746,  1747,  1748,  1749,  1750,  1751,  1752,  1753,  1754,  1755,  1861
  1862,  1863,  1864,  1865,  1866,  1867,  1868,  1869,  1870,  1871,  1872,  1873,  1874,  1875,  1887,  1888
 10151, 10152, 10153, 10154, 10155, 10156, 10157, 10158, 10159, 10160, 10161, 10162, 10163, 10164, 10165, 10518
 10519, 10520, 10521, 10522, 10523, 10524, 10525, 10526, 10527, 10528, 10529, 10530, 10531, 10532, 10720, 10721
 10722, 10723, 10724, 10725, 10726, 10727, 10728, 10729, 10730, 10731, 10732, 10733, 10734, 10922, 10923, 10924
 10925, 10926, 10927, 10928, 10929, 10930, 10931, 10932, 10933, 10934, 10935, 10936, 11923, 11924, 11925, 11926
 11927, 11928, 11929, 11930, 11931, 11932, 11933, 11934, 11935, 11936, 11937
*Elset, elset=_PickedSet133, internal, instance=GFRP_Hole-1
 13027, 13028, 13029, 13030, 13031, 13032, 13033, 13034, 13035, 13036, 13037, 13038, 13039, 13040, 13041, 13042
 13043, 13044, 13045, 13046, 13047, 13048, 13049, 13050, 13051, 13052, 13053, 13054, 13055, 13056, 13057, 13058
 13411, 13412, 13413, 13414, 13415, 13416, 13417, 13418, 13419, 13420, 13421, 13422, 13423, 13424, 13425, 13426
 13427, 13428, 13429, 13430, 13431, 13432, 13433, 13434, 13435, 13436, 13437, 13438, 13439, 13440, 13441, 13442
 13795, 13796, 13797, 13798, 13799, 13800, 13801, 13802, 13803, 13804, 13805, 13806, 13807, 13808, 13809, 13810
 13811, 13812, 13813, 13814, 13815, 13816, 13817, 13818, 13819, 13820, 13821, 13822, 13823, 13824, 13825, 13826
 14179, 14180, 14181, 14182, 14183, 14184, 14185, 14186, 14187, 14188, 14189, 14190, 14191, 14192, 14193, 14194
 14195, 14196, 14197, 14198, 14199, 14200, 14201, 14202, 14203, 14204, 14205, 14206, 14207, 14208, 14209, 14210
 15923, 15924, 15925, 15926, 15927, 15928, 15929, 15930, 15931, 15932, 15933, 15934, 15935, 15936, 15937, 15938
 16115, 16116, 16117, 16118, 16119, 16120, 16121, 16122, 16123, 16124, 16125, 16126, 16127, 16128, 16129, 16130
*Elset, elset=_Half_tie1_S3, internal, instance=DSS_Hole-1
 4362, 4363, 4364, 4365, 4366, 4367, 4368, 4369, 4370, 4371, 4372, 4373, 4374, 4375, 4376, 4377
 4378, 4379, 4380, 4381, 4382, 4383, 4384, 4385, 4386, 4387, 4388, 4389, 4390, 4391, 4392, 4393
 4394, 4395, 4396, 4397, 4398, 4399, 4400, 4401, 4402, 4403, 4404, 4405, 4406, 4407, 4408, 4409
 8074, 8075, 8076, 8077, 8078, 8079, 8080, 8081, 8082, 8083, 8084, 8085, 8086, 8087, 8088, 8089
 8090, 8091, 8092, 8093, 8094, 8095, 8096, 8097, 8098, 8099, 8100, 8101, 8102, 8103, 8104, 8105
 8106, 8107, 8108, 8109, 8110, 8111, 8112, 8113, 8114, 8115, 8116, 8117, 8118, 8119, 8120, 8121
 8122, 8123, 8124, 8125, 8126, 8127, 8128, 8129, 8130, 8131, 8132, 8133, 8134, 8135, 8136, 8137
 8138, 8139, 8140, 8141, 8142, 8143, 8144, 8145, 8146, 8147, 8148, 8149, 8150, 8151, 8152, 8153
 8154, 8155, 8156, 8157, 8158, 8159, 8160, 8161, 8162, 8163, 8164, 8165, 8166, 8167, 8168, 8169
 8170, 8171, 8172, 8173, 8174, 8175, 8176, 8177, 8178, 8179, 8180, 8181, 8182, 8183, 8184, 8185
 8186, 8187, 8188, 8189, 8190, 8191, 8192, 8193, 8194, 8195, 8196, 8197, 8198, 8199, 8200, 8201
 8202, 8203, 8204, 8205, 8206, 8207, 8208, 8209, 8210, 8211, 8212, 8213, 8214, 8215, 8216, 8217
 8218, 8219, 8220, 8221, 8222, 8223, 8224, 8225, 8226, 8227, 8228, 8229, 8230, 8231, 8232, 8233
 8234, 8235, 8236, 8237, 8238, 8239, 8240, 8241, 8242, 8243, 8244, 8245, 8246, 8247, 8248, 8249
 8250, 8251, 8252, 8253, 8254, 8255, 8256, 8257, 8258, 8259, 8260, 8261, 8262, 8263, 8264, 8265
 8266, 8267, 8268, 8269, 8270, 8271, 8272, 8273, 8274, 8275, 8276, 8277, 8278, 8279, 8280, 8281
 8282, 8283, 8284, 8285, 8286, 8287, 8288, 8289, 8290, 8291, 8292, 8293, 8294, 8295, 8296, 8297
 8298, 8299, 8300, 8301, 8302, 8303, 8304, 8305, 8306, 8307, 8308, 8309, 8310, 8311, 8312, 8313
 8314, 8315, 8316, 8317, 8318, 8319, 8320, 8321, 8322, 8323, 8324, 8325, 8476, 8477, 8478
*Elset, elset=_Half_tie1_S4, internal, instance=DSS_Hole-1
 4410, 4411, 4412, 4413, 4934, 4935, 4936, 4937, 4938, 4939, 4940, 4941, 4942, 4943, 4944, 4945
 4946, 4947, 4948, 4949, 4950, 4951, 4952, 4953, 4954, 4955, 4956, 4957, 4958, 4959, 4960, 4961
 4962, 4963, 4964, 4965, 4966, 4967, 4968, 4969, 4970, 4971, 4972, 4973, 4974, 4975, 4976, 4977
 4978, 4979, 4980, 4981, 4982, 4983, 4984, 4985, 4986, 4987, 4988, 4989, 4990, 4991, 4992, 4993
 4994, 4995, 4996, 4997, 4998, 4999, 5000, 5001, 5002, 5003, 5004, 5005, 5006, 5007, 5008, 5009
 5010, 5011, 5012, 5013, 5014, 5015, 5016, 5017, 5018, 5019, 5020, 5021, 5022, 5023, 5024, 5025
 5026, 5027, 5028, 5029, 5030, 5031, 5032, 5033, 5034, 5035, 5036, 5037, 5038, 5039, 5040, 5041
 5042, 5043, 5044, 5045, 5046, 5047, 5048, 5049, 5050, 5051, 5052, 5053, 5054, 5055, 5056, 5057
 5058, 5059, 5060, 5061, 5062, 5063, 5064, 5065, 5066, 5067, 5068, 5069, 5070, 5071, 5072, 5073
 5074, 5075, 5076, 5077, 5078, 5079, 5080, 5081, 5082, 5083, 5084, 5085, 5086, 5087, 5088, 5089
 5090, 5091, 5092, 5093, 5094, 5095, 5096, 5097, 5098, 5099, 5100, 5101, 5102, 5103, 5104, 5105
 5106, 5107, 5108, 5109, 5110, 5111, 5112, 5113, 5114, 5115, 5116, 5117, 5118, 5119, 5120, 5121
 5122, 5123, 5124, 5125, 5126, 5127, 5128, 5129, 5130, 5131, 5132, 5133, 5134, 5135, 5136, 5137
 5138, 5139, 5140, 5141, 5142, 5143, 5144, 5145, 5146, 5147, 5148, 5149, 5150, 5151, 5152, 5153
 5154, 5155, 5156, 5157, 5158, 5159, 5160, 5161, 5162, 5163, 5164, 5165, 5166, 5167, 5168, 5169
 5170, 5171, 5172, 5173, 5174, 5175, 5176, 5177, 5178, 5179, 5180, 5181, 5182, 5183, 5184, 5185
 5186, 5187, 5188, 5189, 5190, 5191, 5192, 5193, 8326, 8327, 8328, 8329, 8330, 8331, 8332, 8333
 8334, 8335, 8336, 8337, 8338, 8339, 8340, 8341, 8342, 8343, 8344, 8345, 8346, 8347, 8348, 8349
 8350, 8351, 8352, 8353, 8354, 8355, 8356, 8357, 8358, 8359, 8360, 8361, 8362, 8363, 8364, 8365
 8366, 8367, 8368, 8369, 8370, 8371, 8372, 8373, 8374, 8375, 8376, 8377, 8378, 8379, 8380, 8381
 8382, 8383, 8384, 8385, 8386, 8387, 8388, 8473, 8474, 8475, 8479, 8480, 8481, 8482, 8483, 8484
 8485, 8486, 8487, 8488, 8489, 8490, 8491, 8492, 8493, 8494, 8495, 8496, 8497, 8498, 8499, 8500
 8501, 8502, 8503, 8504, 8505, 8506, 8507, 8508, 8509, 8510, 8511, 8512, 8513, 8514
*Surface, type=ELEMENT, name=Half_tie1
_Half_tie1_S3, S3
_Half_tie1_S4, S4
*Elset, elset=_Half_tie2_S4, internal, instance=GFRP_Hole-1
 6403, 6404, 6405, 6406, 6407, 6408, 6409, 6410, 6411, 6412, 6413, 6414, 6415, 6416, 6417, 6418
 6419, 6420, 6421, 6422, 6423, 6424, 6425, 6426, 6427, 6428, 6429, 6430, 6431, 6432, 6433, 6434
 6435, 6436, 6437, 6438, 6439, 6440, 6441, 6442, 6443, 6444, 6445, 6446, 6447, 6448, 6449, 6450
 6451, 6452, 6453, 6454, 6455, 6456, 6457, 6458, 6459, 6460, 6461, 6462, 6463, 6464, 6465, 6760
 6761, 6762, 9193, 9194, 9195, 9196, 9197, 9198, 9199, 9200, 9201, 9202, 9203, 9204, 9205, 9206
 9207, 9208, 9209, 9210, 9211, 9212, 9213, 9214, 9215, 9216, 9217, 9218, 9219, 9220, 9221, 9222
 9223, 9224, 9225, 9226, 9227, 9228, 9229, 9230, 9231, 9232, 9233, 9234, 9235, 9236, 9237, 9238
 9239, 9240, 9241, 9242, 9243, 9244, 9245, 9246, 9247, 9248, 9249, 9250, 9251, 9252, 9253, 9254
 9255, 9256
*Elset, elset=_Half_tie2_S3, internal, instance=GFRP_Hole-1
 6466, 6467, 6468, 6763, 6764, 6765, 6766, 6767, 6768, 6769, 6770, 6771, 6772, 6773, 6774, 6775
 6776, 6777, 6778, 6779, 6780, 6781, 6782, 6783, 6784, 6785, 6786, 6787, 6788, 6789, 6790, 6791
 6792, 6793, 6794, 6795, 6796, 6797, 6798, 9257, 9258, 9259, 9260, 9261, 9262, 9263, 9264, 9265
 9266, 9267, 9268, 9269, 9270, 9271, 9272, 9273, 9274, 9275, 9276, 9277, 9278, 9279, 9280, 9281
 9282, 9283, 9284, 9285, 9286, 9287, 9288, 9289, 9290, 9291, 9292, 9293, 9294, 9295, 9296, 9297
 9298, 9299, 9300, 9301, 9302, 9303, 9304, 9305, 9306, 9307, 9308, 9309, 9310, 9311, 9312, 9313
 9314, 9315, 9316, 9317, 9318, 9319, 9320, 9321, 9322, 9323, 9324, 9325, 9326, 9327, 9328, 9329
 9330, 9331, 9332, 9333, 9334, 9335, 9336, 9337, 9338, 9339, 9340, 9341, 9342, 9343, 9344, 9345
 9346, 9347, 9348, 9349, 9350, 9351, 9352, 9353, 9354, 9355, 9356, 9357, 9358, 9359, 9360, 9361
 9362, 9363, 9364, 9365, 9366, 9367, 9368, 9369, 9370, 9371, 9372, 9373, 9374, 9375, 9376, 9377
 9378, 9379, 9380, 9381, 9382, 9383, 9384, 9385, 9386, 9387, 9388, 9389, 9390, 9391, 9392, 9393
 9394, 9395, 9396, 9397, 9398, 9399, 9400, 9401, 9402, 9403, 9404, 9405, 9406, 9407, 9408, 9409
 9410, 9411, 9412, 9413, 9414, 9415, 9416, 9417, 9418, 9419, 9420, 9421, 9422, 9423, 9424, 9425
 9426, 9427, 9428, 9429, 9430, 9431, 9432, 9433, 9434, 9435, 9436, 9437, 9438, 9439, 9440, 9441
 9442, 9443, 9444, 9445, 9446, 9447, 9448
*Elset, elset=_Half_tie2_S2, internal, instance=GFRP_Hole-1
 6799, 6800, 6801, 6802, 6803, 6804, 6805, 6806, 6807, 6808, 6809, 6810, 6811, 6812, 6813, 6814
 6815, 6816, 6817, 6818, 6819, 6820, 6821, 6822, 6823, 6824, 6825, 6826, 6827, 6828, 6829, 6830
 6831, 6832, 6833, 6834, 6835, 6836, 6837, 6838, 6839, 6840, 6841, 6842, 6843, 6844, 6845, 6846
 6847, 6848, 6849, 6850, 6851, 6852, 6853, 6854, 6855, 6856, 6857, 6858, 6859, 6860, 6861, 6862
 6863, 6864, 6865, 6866, 6867, 6868, 6869, 6870, 6871, 6872, 6873, 6874, 6875, 6876, 6877, 6878
 6879, 6880, 6881, 6882, 6883, 6884, 6885, 6886, 6887, 6888, 6889, 6890, 6891, 6892, 6893, 6894
 6895, 6896, 6897, 6898, 6899, 6900, 6901, 6902, 6903, 6904, 6905, 6906, 6907, 6908, 6909, 6910
 6911, 6912, 6913, 6914, 6915, 6916, 6917, 6918, 6919, 6920, 6921, 6922, 6923, 6924, 6925, 6926
 6927, 6928, 6929, 6930, 6931, 6932, 6933, 6934, 6935, 6936, 6937, 6938, 6939, 6940, 6941, 6942
 6943, 6944, 6945, 6946, 6947, 6948, 6949, 6950, 6951, 6952, 6953, 6954, 6955, 6956, 6957, 6958
 6959, 6960, 6961, 6962, 6963, 6964, 6965, 6966, 6967, 6968, 6969, 6970, 6971, 6972, 6973, 6974
 6975, 6976, 6977, 6978, 6979, 6980, 6981, 6982, 6983, 6984, 6985, 6986, 6987, 6988, 6989, 6990
 6991, 6992, 6993, 6994, 6995, 6996, 6997, 6998, 6999, 7000, 7001, 7002, 7003, 7004, 7005, 7006
 7007, 7008, 7009, 7010, 7011, 7012, 7013, 7014, 7015, 7016, 7017, 7018, 7019, 7020, 7021, 7022
 7023, 7024, 7025, 7026, 7027, 7028, 7029, 7030, 7031, 7032, 7033, 7034, 7035, 7036, 7037, 7038
 7039, 7040, 7041, 7042, 7043, 7044, 7045, 7046, 7047, 7048, 7049, 7050, 9705, 9706, 9707, 9708
 9709, 9710, 9711, 9712, 9713, 9714, 9715, 9716, 9717, 9718, 9719, 9720, 9721, 9722, 9723, 9724
 9725, 9726, 9727, 9728, 9729, 9730, 9731, 9732, 9733, 9734, 9735, 9736, 9737, 9738, 9739, 9740
 9741, 9742, 9743, 9744, 9745, 9746, 9747, 9748, 9749, 9750, 9751, 9752, 9753, 9754, 9755, 9756
 9757, 9758, 9759, 9760
*Surface, type=ELEMENT, name=Half_tie2
_Half_tie2_S4, S4
_Half_tie2_S3, S3
_Half_tie2_S2, S2
*Surface, type=NODE, name=_PickedSet131_CNS_, internal
_PickedSet131, 1.
** Constraint: RP_Fixed
*Coupling, constraint name=RP_Fixed, ref node=RP_Fixed, surface=_PickedSet131_CNS_
*Kinematic
*End Assembly
** 
** ELEMENT CONTROLS
** 
*Section Controls, name=EC-1, DISTORTION CONTROL=YES, ELEMENT DELETION=YES, MAX DEGRADATION=1., hourglass=ENHANCED
1., 1., 1.
*Amplitude, name=Amp-1, definition=SMOOTH STEP
             0.,              0.,            0.05,              1.
*Amplitude, name=Amp-2, definition=SMOOTH STEP
             0.,              0.,             0.1,              1.
** 
** MATERIALS
** 
*Material, name=Bolts2_Preload
*Density
 7.9e-09,
*Elastic
193000., 0.3
*Expansion
 1e-05,
*Plastic
650.,   0.
850., 0.15
*Material, name=Cohesive0420
*Damage Initiation, criterion=QUADS
 55.8,50.,50.
*Damage Evolution, type=ENERGY, mixed mode behavior=POWER LAW, power=1.
 0.5, 2.1, 2.1
*Density
 1.4e-09,
*Elastic, type=TRACTION
3200.,1850.,1850.
*Material, name=Cohesive1
*Damage Initiation, criterion=QUADS
31.,20.,20.
*Damage Evolution, type=ENERGY
 0.3255,
*Density
 1.4e-09,
*Elastic, type=TRACTION
3200., 1185.2, 1185.2
*Material, name=DSS1
*Density
 7.85e-09,
*Elastic
200000., 0.3
*Plastic
612.,0.
*Material, name=VUMAT-GFRP
*Density
 1.921e-09,
*Depvar, delete=15
     22,
*User Material, constants=16
 0.0126, 0.0029, 0.0155, 0.0109, 0.0229, 0.0129, 0.0129, 42700.
 12072., 12072., 0.2629, 0.2629,   0.21,  4090.,  4090.,  4320.
*Material, name=VUMAT-GFRP-0422
*Density
 1.921e-09,
*Depvar, delete=15
     22,
*User Material, constants=16
 0.0157, 0.0741, 0.0029, 0.0264, 0.1942, 0.1896, 0.1896, 42700.
 12072., 12072., 0.2629, 0.2629,   0.21,  4090.,  4090.,  4320.
*Material, name=VUMAT-GFRP-0422-02
*Density
 1.921e-09,
*Depvar, delete=15
     22,
*User Material, constants=16
 0.0157, 0.0741, 0.0029, 0.0264, 0.0365, 0.0222, 0.0222, 42700.
 12072., 12072., 0.2629, 0.2629,   0.21,  4090.,  4090.,  4320.
** 
** INTERACTION PROPERTIES
** 
*Surface Interaction, name=Fraction
*Friction
 0.3,
*Surface Behavior, pressure-overclosure=HARD
** 
** BOUNDARY CONDITIONS
** 
** Name: BC-1 Type: Symmetry/Antisymmetry/Encastre
*Boundary
RP_Fixed, ENCASTRE
** Name: BC-3 Type: Symmetry/Antisymmetry/Encastre
*Boundary
Quart1, YSYMM
** Name: BC-4 Type: Symmetry/Antisymmetry/Encastre
*Boundary
Quart2, ZSYMM
** 
** PREDEFINED FIELDS
** 
** Name: Predefined Field-1   Type: Temperature
*Initial Conditions, type=TEMPERATURE
Bolt_HalfHalf, 0.
** 
** INTERACTIONS
** 
** Interaction: Int-1
*Contact, op=NEW
*Contact Inclusions, ALL EXTERIOR
*Contact Property Assignment
 ,  , Fraction
** ----------------------------------------------------------------
** 
** STEP: Step-Pre
** 
*Step, name=Step-Pre, nlgeom=YES
*Dynamic, Explicit
, 0.05
*Bulk Viscosity
0.06, 1.2
** Mass Scaling: Semi-Automatic
**               Whole Model
*Fixed Mass Scaling, dt=5e-08, type=below min
** 
** PREDEFINED FIELDS
** 
** Name: Predefined Field-2   Type: Temperature
*Temperature, amplitude=Amp-1
Bolt_HalfHalf, -24.
** 
** OUTPUT REQUESTS
** 
*Restart, write, number interval=1, time marks=NO
** 
** FIELD OUTPUT: F-Output-1
** 
*Output, field, number interval=300
*Node Output
A, RF, U, V
*Element Output, directions=YES
DAMAGEC, DAMAGEFC, DAMAGEFT, DAMAGEMC, DAMAGEMT, DAMAGESHR, DAMAGET, EVF, LE, PE, PEEQ, PEEQVAVG, PEVAVG, S, SDEG, SDV
STATUS, SVAVG
*Contact Output
CSTRESS, 
** 
** HISTORY OUTPUT: H-Output-1
** 
*Output, history, variable=PRESELECT, frequency=1
*End Step
** ----------------------------------------------------------------
** 
** STEP: Step-Core
** 
*Step, name=Step-Core, nlgeom=YES
*Dynamic, Explicit
, 0.1
*Bulk Viscosity
0.06, 1.2
** Mass Scaling: Semi-Automatic
**               Whole Model
*Fixed Mass Scaling, dt=5e-08, type=below min
** 
** BOUNDARY CONDITIONS
** 
** Name: BC-2 Type: Displacement/Rotation
*Boundary, amplitude=Amp-2
_PickedSet133, 1, 1, 8.
** 
** OUTPUT REQUESTS
** 
*Restart, write, number interval=1, time marks=NO
** 
** FIELD OUTPUT: F-Output-1
** 
*Output, field, number interval=300
*Node Output
A, RF, U, V
*Element Output, directions=YES
DAMAGEC, DAMAGEFC, DAMAGEFT, DAMAGEMC, DAMAGEMT, DAMAGESHR, DAMAGET, EVF, LE, PE, PEEQ, PEEQVAVG, PEVAVG, S, SDEG, SDV
STATUS, SVAVG
*Contact Output
CSTRESS, 
** 
** HISTORY OUTPUT: H-Output-1
** 
*Output, history, variable=PRESELECT, frequency=1
*End Step
