*Heading
** Job name: 0422_H48_02 Model name: Model-2
** Generated by: Abaqus/CAE 2022
*Preprint, echo=NO, model=NO, history=NO, contact=NO
**
** PARTS
**
*Part, name=Adhesive_Hole
*Node
      1,          48.,          60.,           0.
      2,          48.,          38.,           0.
      3,          40.,          30.,           0.
      4,           0.,          30.,           0.
      5,           0.,          60.,           0.
      6,          48.,          38.,          0.5
      7,          48.,          60.,          0.5
      8,           0.,          60.,          0.5
      9,           0.,          30.,          0.5
     10,          40.,          30.,          0.5
     11,   52.1159668,   36.8599434,           0.
     12,          88.,          60.,           0.
     13,          88.,          30.,           0.
     14,          56.,          30.,           0.
     15,   52.1159668,   36.8599434,          0.5
     16,          56.,          30.,          0.5
     17,          88.,          30.,          0.5
     18,          88.,          60.,          0.5
     19,          48.,   58.2542191,           0.
     20,          48.,   56.5107803,           0.
** ... 1408 like lines cut
*Element, type=COH3D8
  1, 291, 313,  91,  90, 607, 629, 108, 109
  2, 313, 314,  92,  91, 629, 630, 107, 108
  3, 314, 315,  93,  92, 630, 631, 106, 107
  4, 315,  19,   1,  93, 631, 105,   7, 106
  5, 290, 316, 313, 291, 606, 632, 629, 607
  6, 316, 317, 314, 313, 632, 633, 630, 629
  7, 317, 318, 315, 314, 633, 634, 631, 630
  8, 318,  20,  19, 315, 634, 104, 105, 631
  9, 289, 319, 316, 290, 605, 635, 632, 606
 10, 319, 320, 317, 316, 635, 636, 633, 632
 11, 320, 321, 318, 317, 636, 637, 634, 633
 12, 321,  21,  20, 318, 637, 103, 104, 634
 13, 288, 322, 319, 289, 604, 638, 635, 605
 14, 322, 323, 320, 319, 638, 639, 636, 635
 15, 323, 324, 321, 320, 639, 640, 637, 636
 16, 324,  22,  21, 321, 640, 102, 103, 637
 17, 287, 325, 322, 288, 603, 641, 638, 604
 18, 325, 326, 323, 322, 641, 642, 639, 638
 19, 326, 327, 324, 323, 642, 643, 640, 639
 20, 327,  23,  22, 324, 643, 101, 102, 640
** ... 630 like lines cut
*Nset, nset=_PickedSet17, internal, generate
    1,  1428,     1
*Elset, elset=_PickedSet17, internal, generate
   1,  650,    1
** Section: Adhesive
*Cohesive Section, elset=_PickedSet17, controls=EC-2, material=Cohesive0422-03, response=TRACTION SEPARATION, thickness=SPECIFIED
0.5, 
*End Part
**  
*Part, name=DSS_Hole
*Node
      1,           0.,          30.,           5.
      2,        -120.,          30.,           5.
      3,        -120.,          30.,           0.
      4,           0.,          30.,           0.
      5,        -120.,          60.,           5.
      6,        -120.,          60.,           0.
      7,           0.,          60.,           0.
      8,           0.,          60.,           5.
      9,        -312.,          60.,           5.
     10,        -312.,          60.,          10.
     11,        -120.,          60.,          10.
     12,        -312.,          30.,           5.
     13,        -312.,          30.,          10.
     14,        -120.,          30.,          10.
     15,        -360.,          60.,           5.
     16,        -360.,          38.,           5.
     17,        -352.,          30.,           5.
     18,        -352.,          30.,          10.
     19,        -360.,          38.,          10.
     20,        -360.,          60.,          10.
** ... 10718 like lines cut
*Element, type=C3D8R
  1,  117,  953, 5675,  897,    1,   38,  853,   63
  2,  953,  954, 5676, 5675,   38,   39,  854,  853
  3,  954,  955, 5677, 5676,   39,   40,  855,  854
  4,  955,  956, 5678, 5677,   40,   41,  856,  855
  5,  956,  957, 5679, 5678,   41,   42,  857,  856
  6,  957,  958, 5680, 5679,   42,   43,  858,  857
  7,  958,  959, 5681, 5680,   43,   44,  859,  858
  8,  959,  960, 5682, 5681,   44,   45,  860,  859
  9,  960,  961, 5683, 5682,   45,   46,  861,  860
 10,  961,  962, 5684, 5683,   46,   47,  862,  861
 11,  962,  963, 5685, 5684,   47,   48,  863,  862
 12,  963,  145,  925, 5685,   48,    2,   49,  863
 13,  897, 5675, 5686,  898,   63,  853,  864,   62
 14, 5675, 5676, 5687, 5686,  853,  854,  865,  864
 15, 5676, 5677, 5688, 5687,  854,  855,  866,  865
 16, 5677, 5678, 5689, 5688,  855,  856,  867,  866
 17, 5678, 5679, 5690, 5689,  856,  857,  868,  867
 18, 5679, 5680, 5691, 5690,  857,  858,  869,  868
 19, 5680, 5681, 5692, 5691,  858,  859,  870,  869
 20, 5681, 5682, 5693, 5692,  859,  860,  871,  870
** ... 8494 like lines cut
*Nset, nset=_PickedSet31, internal, generate
     1,  10738,      1
*Elset, elset=_PickedSet31, internal, generate
    1,  8514,     1
** Section: DSS
*Solid Section, elset=_PickedSet31, material=DSS1
,
*End Part
**  
*Part, name=GFRP_Hole
*Node
      1,         120.,          38.,           1.
      2,         120.,          38.,           0.
      3,           0.,          38.,           0.
      4,           0.,          38.,           1.
      5,         120.,          30.,           0.
      6,           0.,          30.,           0.
      7,           0.,          30.,           1.
      8,         120.,          30.,           1.
      9,           0.,          38.,           2.
     10,         120.,          38.,           2.
     11,           0.,          30.,           2.
     12,         120.,          30.,           2.
     13,         192.,          38.,           1.
     14,         192.,          38.,           0.
     15,         192.,          30.,           0.
     16,         192.,          30.,           1.
     17,         312.,          38.,           1.
     18,         192.,          38.,           2.
     19,         312.,          38.,           2.
     20,         192.,          30.,           2.
** ... 11248 like lines cut
*Element, type=C3D8R
 1,  165,  175, 2504, 2449,    1,    2,  116,  137
 2, 2449, 2504, 2505, 2450,  137,  116,  117,  136
 3, 2450, 2505, 2506, 2451,  136,  117,  118,  135
 4, 2451, 2506, 2507, 2452,  135,  118,  119,  134
 5, 2452, 2507, 2508, 2453,  134,  119,  120,  133
 6, 2453, 2508, 2509, 2454,  133,  120,  121,  132
 7, 2454, 2509, 2510, 2455,  132,  121,  122,  131
 8, 2455, 2510, 2511, 2456,  131,  122,  123,  130
 9, 2456, 2511, 2512, 2457,  130,  123,  124,  129
10, 2457, 2512, 2513, 2458,  129,  124,  125,  128
11, 2458, 2513, 2514, 2459,  128,  125,  126,  127
12, 2459, 2514,  174,  164,  127,  126,    3,    4
13,  166,  176, 2515, 2460,  165,  175, 2504, 2449
14, 2460, 2515, 2516, 2461, 2449, 2504, 2505, 2450
15, 2461, 2516, 2517, 2462, 2450, 2505, 2506, 2451
16, 2462, 2517, 2518, 2463, 2451, 2506, 2507, 2452
17, 2463, 2518, 2519, 2464, 2452, 2507, 2508, 2453
18, 2464, 2519, 2520, 2465, 2453, 2508, 2509, 2454
19, 2465, 2520, 2521, 2466, 2454, 2509, 2510, 2455
20, 2466, 2521, 2522, 2467, 2455, 2510, 2511, 2456
** ... 8735 like lines cut
*Nset, nset=_PickedSet88, internal, generate
     1,  11268,      1
*Elset, elset=_PickedSet88, internal, generate
    1,  8755,     1
*Orientation, name=Ori-1
          1.,           0.,           0.,           0.,           1.,           0.
3, 0.
** Section: GFRP
*Solid Section, elset=_PickedSet88, orientation=Ori-1, controls=EC-1, material=VUMAT-GFRP-0422-02
,
*End Part
**  
*Part, name=Part-4
*Node
      1,           0.,    7.9000001,         15.5
      2,    7.9000001,           0.,         15.5
      3,           0.,           0.,         15.5
      4,    7.9000001,           0.,           0.
      5,           0.,    7.9000001,           0.
      6,           0.,           0.,           0.
      7,   -7.9000001,           0.,         15.5
      8,   -7.9000001,           0.,           0.
      9,           0.,          12.,         15.5
     10,          12.,           0.,         15.5
     11,           0.,          12.,         29.5
     12,           0.,           0.,         29.5
     13,          12.,           0.,         29.5
     14,         -12.,           0.,         15.5
     15,         -12.,           0.,         29.5
     16,   1.37182057,   7.77998114,         15.5
     17,   2.70195913,   7.42357159,         15.5
     18,   3.95000005,   6.84160089,         15.5
     19,     5.078022,   6.05175114,         15.5
     20,   6.05175114,     5.078022,         15.5
** ... 1372 like lines cut
*Element, type=C3D8R
  1, 237, 238, 747, 738,  18,  17, 178, 177
  2, 238, 239, 748, 747,  17,  16, 179, 178
  3, 239,  30, 195, 748,  16,   1,  29, 179
  4, 240, 241, 749, 737, 237, 238, 747, 738
  5, 241, 242, 750, 749, 238, 239, 748, 747
  6, 242,  31, 196, 750, 239,  30, 195, 748
  7, 243, 244, 751, 736, 240, 241, 749, 737
  8, 244, 245, 752, 751, 241, 242, 750, 749
  9, 245,  32, 197, 752, 242,  31, 196, 750
 10, 246, 247, 735, 733, 243, 244, 751, 736
 11, 247, 248, 734, 735, 244, 245, 752, 751
 12, 248,  33, 198, 734, 245,  32, 197, 752
 13, 293,  40, 249, 753,  37,   2,  23, 180
 14, 753, 249, 250, 754, 180,  23,  22, 181
 15, 754, 250, 251, 755, 181,  22,  21, 182
 16, 755, 251, 252, 756, 182,  21,  20, 183
 17, 756, 252, 253, 757, 183,  20,  19, 184
 18, 757, 253, 237, 738, 184,  19,  18, 177
 19, 294,  41, 254, 758, 293,  40, 249, 753
 20, 758, 254, 255, 759, 753, 249, 250, 754
** ... 1042 like lines cut
*Nset, nset=_PickedSet7, internal, generate
    1,  1392,     1
*Elset, elset=_PickedSet7, internal, generate
    1,  1062,     1
** Section: Bolt
*Solid Section, elset=_PickedSet7, material=Bolts2_Preload
,
*End Part
**  
**
** ASSEMBLY
**
*Assembly, name=Assembly
**  
*Instance, name=DSS_Hole-1, part=DSS_Hole
       -360.,          30.,          5.5
       -360.,          30.,          5.5,        -360.,          30.,          6.5,         180.
*End Instance
**  
*Instance, name=GFRP_Hole-1, part=GFRP_Hole
        352.,          30.,           0.
        352.,          30.,           0.,         352.,          30.,           1.,         180.
*End Instance
**  
*Instance, name=Adhesive_Hole-2, part=Adhesive_Hole
        -48.,          30.,          5.5
        -48.,          30.,          5.5,         -47.,          30.,          5.5,         180.
*End Instance
**  
*Instance, name=Part-4-2, part=Part-4
         0.1,           0.,           0.
         0.1,           0.,           0.,          0.1,           0.,           1.,         180.
*End Instance
**  
*Node
      1,         352.,         -15.,          2.5
*Node
      2,        -352.,         -15.,         10.5
*Nset, nset=Bolt_HalfHalf, instance=Part-4-2, generate
    1,  1392,     1
*Elset, elset=Bolt_HalfHalf, instance=Part-4-2, generate
    1,  1062,     1
*Nset, nset=LSD1, instance=DSS_Hole-1
 25,
*Nset, nset=LSD2, instance=GFRP_Hole-1
 70,
*Nset, nset=Quart1, instance=DSS_Hole-1
    1,    2,    3,    4,   12,   13,   14,   17,   18,   21,   22,   26,   27,   30,   31,   33
   35,   37,   38,   39,   40,   41,   42,   43,   44,   45,   46,   47,   48,   49,   50,   51
   52,   53,   54,   55,   56,   57,   58,   59,   60,   61,   62,   63,  224,  225,  226,  227
  228,  229,  230,  231,  232,  233,  234,  235,  236,  237,  238,  239,  240,  241,  242,  243
  244,  245,  246,  247,  248,  249,  250,  251,  252,  253,  254,  255,  256,  257,  258,  259
  260,  261,  262,  263,  264,  265,  266,  267,  268,  269,  270,  271,  272,  273,  274,  275
  276,  277,  278,  279,  280,  281,  282,  283,  284,  285,  286,  287,  288,  289,  290,  291
  292,  293,  294,  295,  296,  297,  298,  299,  300,  301,  367,  368,  369,  370,  371,  372
  373,  374,  375,  376,  377,  378,  379,  380,  381,  382,  383,  384,  385,  386,  387,  388
  389,  390,  391,  392,  393,  394,  395,  396,  397,  398,  399,  400,  401,  402,  403,  404
  405,  406,  407,  408,  453,  454,  479,  480,  481,  482,  483,  484,  485,  486,  487,  488
  489,  490,  491,  492,  493,  494,  495,  496,  512,  513,  514,  515,  516,  517,  518,  519
  520,  521,  522,  523,  524,  525,  526,  527,  582,  583,  633,  634,  635,  636,  639,  640
  641,  642,  643,  644,  645,  646,  647,  648,  649,  650,  651,  652,  653,  654,  670,  671
  672,  673,  674,  675,  676,  677,  678,  679,  680,  681,  682,  710,  711,  765,  766,  767
  768,  769,  770,  771,  772,  773,  774,  775,  776,  777,  778,  779,  780,  781,  782,  783
  784,  785,  786,  787,  788,  789,  790,  791,  792,  793,  794,  795,  796,  797,  798,  799
  800,  801,  825,  826,  827,  828,  829,  830,  831,  832,  833,  834,  835,  836,  837,  838
  839,  840,  841,  842,  843,  844,  845,  846,  847,  853,  854,  855,  856,  857,  858,  859
  860,  861,  862,  863,  864,  865,  866,  867,  868,  869,  870,  871,  872,  873,  874, 1335
** ... 20 like lines cut
*Nset, nset=Quart1, instance=GFRP_Hole-1
    5,    6,    7,    8,   11,   12,   15,   16,   20,   21,   22,   25,   26,   29,   30,   33
   34,   37,   38,   41,   42,   45,   46,   77,   78,   79,   80,   81,   82,   83,   86,   87
   88,   91,   92,   93,   96,   97,   98,  100,  113,  114,  138,  139,  140,  141,  142,  143
  144,  145,  146,  147,  148,  149,  150,  151,  152,  153,  154,  155,  156,  157,  158,  159
  191,  192,  193,  194,  195,  196,  197,  198,  199,  200,  201,  230,  231,  232,  233,  234
  235,  236,  237,  238,  239,  240,  241,  242,  243,  244,  245,  246,  247,  330,  331,  332
  333,  334,  335,  336,  337,  338,  339,  340,  341,  342,  343,  344,  345,  346,  347,  348
  349,  350,  351,  352,  353,  354,  355,  356,  357,  358,  359,  360,  361,  362,  363,  364
  365,  366,  367,  368,  369,  370,  371,  372,  373,  374,  375,  376,  377,  378,  379,  380
  381,  382,  383,  384,  385,  386,  387,  388,  389,  390,  391,  392,  393,  394,  395,  396
  397,  398,  399,  400,  401,  428,  429,  430,  431,  432,  433,  434,  435,  436,  437,  438
  458,  459,  460,  461,  462,  463,  464,  465,  466,  503,  504,  505,  506,  507,  508,  509
  510,  511,  512,  513,  514,  515,  516,  517,  518,  519,  520,  521,  522,  523,  524,  525
  526,  527,  528,  529,  530,  531,  532,  533,  534,  535,  536,  537,  538,  560,  561,  562
  563,  564,  565,  566,  567,  568,  569,  570,  590,  591,  592,  593,  594,  595,  596,  597
  598,  635,  636,  637,  638,  639,  640,  641,  642,  643,  644,  645,  646,  647,  648,  649
  650,  651,  652,  653,  654,  655,  656,  657,  658,  659,  660,  661,  662,  663,  664,  665
  666,  667,  668,  669,  670,  692,  693,  694,  695,  696,  697,  698,  699,  700,  701,  702
  722,  723,  724,  725,  726,  727,  728,  729,  730,  767,  768,  769,  770,  771,  772,  773
  774,  775,  776,  777,  778,  779,  780,  781,  782,  783,  784,  785,  786,  787,  788,  789
** ... 20 like lines cut
*Nset, nset=Quart1, instance=Adhesive_Hole-2
   3,   4,   9,  10,  13,  14,  16,  17,  37,  38,  39,  40,  41,  42,  43,  44
  45,  46,  47,  48,  49,  50,  51,  52,  53,  54,  55,  56, 143, 144, 145, 146
 147, 148, 149, 150, 151, 152, 153, 154, 155, 156, 157, 158, 159, 160, 161, 162
 202, 203, 204, 205, 206, 207, 208, 209, 210, 211, 212, 213, 214, 215, 216, 217
 228, 229, 230, 231, 232, 233, 234, 235, 236, 237, 238, 239, 240, 241, 242, 243
*Nset, nset=Quart1, instance=Part-4-2
   2,   3,   4,   6,   7,   8,  10,  12,  13,  14,  15,  37,  38,  39,  40,  41
  42,  43,  44,  45,  46,  47,  48,  49,  50,  51,  52,  53,  62,  63,  64,  71
  72,  73,  74,  75,  76,  77,  78,  79,  80,  89,  90,  91, 109, 116, 117, 118
 119, 120, 121, 122, 123, 124, 125, 126, 127, 136, 137, 138, 139, 140, 149, 158
 159, 160, 161, 162, 163, 172, 173, 174, 175, 176, 293, 294, 295, 296, 297, 298
 299, 300, 301, 302, 303, 304, 305, 306, 307, 308, 309, 310, 311, 312, 313, 332
 333, 334, 335, 336, 337, 338, 339, 340, 341, 342, 343, 344, 345, 346, 347, 348
 349, 350, 351, 352, 535, 536, 537, 538, 539, 540, 541, 542, 543, 544, 545, 546
 547, 548, 549, 550, 551, 552, 553, 554, 555, 556, 557, 558, 559, 560, 561, 562
 563, 564, 703, 704, 705, 706, 707, 708, 709, 710, 711, 712, 713, 714, 715, 716
 717, 718, 719, 720, 721, 722, 723, 724, 725, 726, 727, 728, 729, 730, 731, 732
*Elset, elset=Quart1, instance=DSS_Hole-1
    1,    2,    3,    4,    5,    6,    7,    8,    9,   10,   11,   12,   13,   14,   15,   16
   17,   18,   19,   20,   21,   22,   23,   24,   25,   26,   27,   28,   29,   30,   31,   32
   33,   34,   35,   36, 2137, 2138, 2139, 2140, 2141, 2142, 2143, 2144, 2145, 2146, 2147, 2148
 2149, 2150, 2151, 2152, 2153, 2154, 2155, 2156, 2157, 2158, 2159, 2160, 2161, 2162, 2163, 2164
 2165, 2166, 2167, 2168, 2169, 2170, 2171, 2172, 2173, 2174, 2175, 2176, 2177, 2178, 2179, 2180
 2181, 2182, 2183, 2184, 2185, 2186, 2187, 2188, 2189, 2190, 2191, 2192, 2193, 2194, 2195, 2196
 2197, 2198, 2199, 2200, 2201, 2202, 2203, 2204, 2205, 2206, 2207, 2208, 2209, 2210, 2211, 2212
 2213, 2214, 2215, 2216, 2217, 2218, 2219, 2220, 2221, 2222, 2223, 2224, 2225, 2226, 2227, 2228
 2229, 2230, 2231, 2232, 2233, 2234, 2235, 2236, 2237, 2238, 2239, 2240, 2241, 2242, 2243, 2244
 2245, 2246, 2247, 2248, 2249, 2250, 2755, 2756, 2761, 2762, 2767, 2768, 2773, 2774, 2779, 2780
 2785, 2786, 2791, 2792, 2797, 2798, 2803, 2804, 2809, 2810, 2815, 2816, 2821, 2822, 2827, 2828
 2833, 2834, 2839, 2840, 2845, 2846, 2851, 2852, 2857, 2858, 2863, 2864, 2869, 2870, 2875, 2876
 2883, 2886, 2889, 2892, 2895, 2898, 2901, 2904, 2907, 2910, 2913, 2916, 2919, 2922, 2925, 2928
 2931, 2934, 2937, 2940, 2943, 3274, 3277, 3280, 3325, 3329, 3333, 3337, 3341, 3345, 3349, 3353
 3357, 3361, 3365, 3369, 3373, 3377, 3381, 3385, 3389, 3393, 3397, 3401, 3405, 3409, 3413, 3417
 3421, 3425, 3429, 3433, 3437, 3441, 3445, 3449, 3450, 3454, 3458, 3462, 3466, 3470, 3474, 3478
 3482, 3486, 3490, 3494, 3498, 3502, 3506, 3510, 4197, 4201, 4209, 4414, 4418, 4425, 4429, 4433
 4437, 4441, 4445, 4449, 4453, 4457, 4461, 4465, 4469, 4473, 4477, 4481, 4485, 4489, 4493, 4497
 4501, 4505, 4509, 4513, 4517, 4521, 4525, 4529, 4533, 4537, 4541, 4545, 4549, 4934, 4938, 4939
 4940, 4941, 4942, 4943, 4944, 4945, 4946, 4947, 4948, 4949, 4950, 4951, 4952, 4953, 5194, 5195
** ... 14 like lines cut
*Elset, elset=Quart1, instance=GFRP_Hole-1
   61,   62,   63,   64,   65,   66,   67,   68,   69,   70,   71,   72,  133,  134,  135,  136
  137,  138,  139,  140,  141,  142,  143,  144,  195,  196,  197,  198,  199,  200,  201,  202
  203,  204,  390,  391,  392,  393,  394,  395,  396,  397,  398,  399,  400,  401,  402,  403
  404,  405,  406,  407,  408,  409,  410,  411,  412,  413,  414,  415,  416,  417,  418,  419
  420,  421,  422,  423,  424,  425,  426,  487,  488,  489,  490,  491,  492,  493,  494,  495
  496,  497,  498,  549,  550,  551,  552,  553,  554,  555,  556,  557,  558,  744,  745,  746
  747,  748,  749,  750,  751,  752,  753,  754,  755,  756,  757,  758,  759,  760,  761,  762
  763,  764,  765,  766,  767,  768,  769,  770,  771,  772,  773,  774,  775,  776,  777,  778
  779,  780,  841,  842,  843,  844,  845,  846,  847,  848,  849,  850,  851,  852,  903,  904
  905,  906,  907,  908,  909,  910,  911,  912, 1098, 1099, 1100, 1101, 1102, 1103, 1104, 1105
 1106, 1107, 1108, 1109, 1110, 1111, 1112, 1113, 1114, 1115, 1116, 1117, 1118, 1119, 1120, 1121
 1122, 1123, 1124, 1125, 1126, 1127, 1128, 1129, 1130, 1131, 1132, 1133, 1134, 1195, 1196, 1197
 1198, 1199, 1200, 1201, 1202, 1203, 1204, 1205, 1206, 1257, 1258, 1259, 1260, 1261, 1262, 1263
 1264, 1265, 1266, 1452, 1453, 1454, 1455, 1456, 1457, 1458, 1459, 1460, 1461, 1462, 1463, 1464
 1465, 1466, 1467, 1468, 1469, 1470, 1471, 1472, 1473, 1474, 1475, 1476, 1477, 1478, 1479, 1480
 1481, 1482, 1483, 1484, 1485, 1486, 1487, 1488, 1539, 1540, 1541, 1542, 1543, 1544, 1545, 1546
 1547, 1548, 4914, 4915, 4916, 4917, 4918, 4919, 4920, 4921, 4922, 4923, 4924, 4925, 4926, 4927
 4928, 4929, 4930, 4931, 4932, 4933, 4934, 4935, 4936, 4937, 4938, 4939, 4940, 4941, 4942, 4943
 4944, 4945, 4946, 4947, 4948, 4949, 4950, 4951, 4952, 4953, 4954, 4955, 4956, 4957, 5178, 5179
 5180, 5181, 5182, 5183, 5184, 5185, 5186, 5187, 5188, 5189, 5190, 5191, 5192, 5193, 5194, 5195
** ... 13 like lines cut
*Elset, elset=Quart1, instance=Adhesive_Hole-2
  55,  56,  57,  58,  59,  60,  61,  62,  63,  64,  65,  66,  67,  68,  69,  70
  71,  72,  73,  74,  75, 602, 605, 608, 611, 614, 617, 620, 623, 626, 629, 632
 635, 638, 641, 644, 647, 648
*Elset, elset=Quart1, instance=Part-4-2
   13,   19,   25,   31,   42,   48,   54,   60,   66,   72,   78,   84,   90,   96,  102,  108
  109,  110,  111,  112,  150,  156,  162,  168,  174,  180,  186,  192,  198,  204,  210,  216
  217,  218,  219,  220,  221,  222,  223,  224,  225,  226,  227,  228,  289,  290,  291,  292
  313,  314,  315,  316,  337,  338,  339,  340,  341,  342,  343,  344,  345,  346,  347,  348
  449,  450,  454,  465,  471,  477,  494,  495,  499,  510,  516,  522,  539,  540,  544,  555
  561,  567,  584,  585,  589,  600,  606,  612,  629,  630,  634,  645,  651,  657,  674,  675
  679,  690,  696,  702,  719,  720,  724,  735,  741,  747,  764,  765,  766,  767,  768,  784
  809,  810,  811,  812,  813,  829,  854,  855,  856,  857,  858,  874,  899,  900,  901,  902
  903,  919,  944,  945,  946,  947,  948,  964,  989,  990,  991,  992,  993, 1009, 1034, 1035
 1036, 1037, 1038, 1054
*Nset, nset=Quart2, instance=GFRP_Hole-1
   71,   72,   73,   74,   77,   80,   82,   83,  101,  102, 1360, 1361, 1362, 1363, 1364, 1365
 1366, 1367, 1368, 1369, 1442, 1443, 1444, 1445, 1446, 1447, 1448, 1449, 1450, 1451, 1452, 1453
 1454, 1455, 1456, 1457, 1458, 1459, 1460, 1461, 1462, 1463, 1464, 1488, 1489, 1490, 1491, 1492
 1493, 1494, 1495, 1496, 1497, 1498, 1499, 1500, 1501, 1502, 1503, 1504, 1505, 1506, 1507, 1508
 1509, 1510, 1539, 1540, 1541, 1542, 1543, 1549, 1550, 1551, 1552, 1553, 1573, 1574, 1575, 1576
 1577, 1578, 1579, 1580, 1581, 1582, 1583, 1584, 1585, 1586, 1587, 1588, 1589, 1590, 1591, 1611
 1612, 1613, 1614, 1615, 1616, 1617, 1618, 1619, 1620, 1621, 1622, 1623, 1624, 1625, 1626, 1627
 1628, 1629, 1630, 1631, 1632, 1633, 1634, 1635, 1636, 1637, 1638, 1639, 1985, 1986, 1987, 1988
 1989, 1990, 1991, 1992, 1993, 1994, 1995, 1996, 1997, 1998, 1999, 2000, 2001, 2002, 2003, 2004
 2005, 2006, 2007, 2041, 2042, 2043, 2044, 2045, 2046, 2047, 2048, 2049, 2050, 2061, 2062, 2063
 2064, 2065, 2066, 2067, 2068, 2069, 2070, 2090, 2091, 2092, 2093, 2094, 2095, 2096, 2097, 2098
 2099, 2100, 2101, 2102, 2103, 2104, 2105, 2106, 2107, 2108, 7309, 7310, 7311, 7312, 7313, 7314
 7315, 7316, 7317, 7318, 7319, 7320, 7321, 7322, 7323, 7324, 7325, 7326, 7327, 7328, 7329, 7330
 7331, 7332, 7333, 7334, 7335, 7336, 7337, 7338, 7339, 7340, 7341, 7342, 7343, 7344, 7345, 7346
 7347, 7348, 7349, 7350, 7351, 7352, 7353, 7354, 7355, 7356, 7357, 7358, 7359, 7360, 7361, 7362
 7363, 7364, 7365, 7366, 7367, 7368, 7369, 7370, 7371, 7372, 7373, 7374, 7375, 7376, 7377, 7378
 7379, 7380, 7381, 7382, 7383, 7384, 7385, 7386, 7387, 7388, 7389, 7390, 7391, 7392, 7393, 7394
 7395, 7396, 7397, 7398, 7399, 7400, 7401, 7402, 7403, 7404, 7405, 7406, 7407, 7408, 7409, 7410
 7411, 7412, 7413, 7414, 7415, 7416, 7417, 7418, 7419, 7420, 7421, 7422, 7423, 7634, 7635, 7636
 7637, 7638, 7639, 7640, 7641, 7642, 7643, 7644, 7645, 7646, 7647, 7648, 7649, 7650, 7651, 7652
** ... 31 like lines cut
*Nset, nset=Quart2, instance=Part-4-2
   4,   5,   6,   8,  54,  55,  56,  57,  58,  59,  60,  61,  62,  63,  64,  65
  66,  67,  68,  69,  70,  89,  90,  91,  92,  93,  94,  95,  96,  97,  98,  99
 314, 315, 316, 317, 318, 319, 320, 321, 322, 323, 324, 325, 326, 327, 328, 329
 330, 331, 427, 428, 429, 430, 431, 432, 433, 434, 435, 436, 437, 438, 439, 440
 441, 442, 443, 444
*Elset, elset=Quart2, instance=GFRP_Hole-1
 4794, 4795, 4796, 4797, 4798, 4799, 4800, 4801, 4802, 4803, 4804, 4805, 4806, 4807, 4808, 4809
 4810, 4811, 4812, 4813, 4814, 4815, 4816, 4817, 4818, 4819, 4820, 4821, 4822, 4823, 4824, 4825
 4826, 4827, 4828, 4829, 4830, 4831, 4832, 4833, 4834, 4835, 4836, 4837, 4838, 4839, 4840, 4841
 4842, 4843, 4844, 4845, 4846, 4847, 4848, 4849, 4850, 4851, 4852, 4853, 4854, 4855, 4856, 4857
 4858, 4859, 4860, 4861, 4862, 4863, 4864, 4865, 4866, 4867, 4868, 4869, 4870, 4871, 4872, 4873
 4874, 4875, 4876, 4877, 4878, 4879, 4880, 4881, 4882, 4883, 4884, 4885, 4886, 4887, 4888, 4889
 4890, 4891, 4892, 4893, 4894, 4895, 4896, 4897, 4898, 4899, 4900, 4901, 4902, 4903, 4904, 4905
 4906, 4907, 4908, 4909, 4910, 4911, 4912, 4913, 4914, 4915, 4916, 4917, 4918, 4919, 4920, 4921
 4922, 4923, 4924, 4925, 4926, 4927, 4928, 4929, 4930, 4931, 4932, 4933, 4934, 4935, 4936, 4937
 4938, 4939, 4940, 4941, 4942, 4943, 4944, 4945, 4946, 4947, 4948, 4949, 4950, 4951, 4952, 4953
 4954, 4955, 4956, 4957, 4958, 4959, 4960, 4961, 4962, 4963, 4964, 4965, 4966, 4967, 4968, 4969
 4970, 4971, 4972, 4973, 4974, 4975, 4976, 4977, 4978, 4979, 4980, 4981, 4982, 4983, 4984, 4985
 4986, 4987, 4988, 4989, 4990, 4991, 4992, 4993, 4994, 4995, 4996, 4997, 4998, 4999, 5000, 5001
 5002, 5003, 5004, 5005, 5006, 5007, 5008, 5009, 5010, 5011, 5012, 5013, 5014, 5015, 5016, 5017
 5018, 5019, 5020, 5021, 5022, 5023, 5024, 5025, 5026, 5027, 5028, 5029, 5030, 5031, 5032, 5033
 5034, 5035, 5036, 5037, 5038, 5039, 5040, 5041, 5042, 5043, 5044, 5045, 5046, 5047, 5048, 5049
 5050, 5051, 5052, 5053, 5054, 5055, 5056, 5057, 5970, 5971, 5972, 5973, 5974, 5975, 5976, 5977
 5978, 5979, 5980, 5981, 5982, 5983, 5984, 5985, 5986, 5987, 5988, 5989, 5990, 5991, 5992, 5993
 5994, 5995, 5996, 5997, 5998, 5999, 6000, 6001, 6002, 6003, 6004, 6005, 6006, 6007, 6008, 6009
 6010, 6011, 6012, 6013, 6014, 6015, 6016, 6017, 6018, 6019, 6020, 6021, 6022, 6023, 6024, 6025
** ... 27 like lines cut
*Elset, elset=Quart2, instance=Part-4-2
 112, 116, 120, 124, 128, 132, 133, 134, 135, 145, 146, 147, 148, 149, 150, 169
 170, 171, 172, 173, 174, 193, 194, 195, 196, 197, 198, 316, 320, 324, 328, 332
 336, 337, 338, 339, 349, 350, 351, 361, 362, 363, 373, 374, 375, 385, 386, 387
 397, 398, 399, 421, 425, 429
*Nset, nset=RP_Fixed
 2,
*Nset, nset=RP_Loaded
 1,
*Nset, nset=_PickedSet131, internal, instance=DSS_Hole-1
    1,    2,    3,    4,    5,    6,    7,    8,   11,   14,   33,   34,   38,   39,   40,   41
   42,   43,   44,   45,   46,   47,   48,   49,   50,   51,   52,   53,   54,   55,   56,   57
   58,   59,   60,   61,   62,   63,   64,   65,   66,   67,   68,   69,   70,   71,   72,   73
   74,   75,   76,   77,   78,   79,   80,   81,   82,   83,   84,   85,   86,   87,   88,   89
   90,   91,   92,   93,   94,   95,   96,   97,   98,   99,  100,  101,  102,  103,  104,  105
  106,  107,  108,  109,  110,  111,  112,  113,  114,  115,  116,  117,  118,  119,  120,  121
  122,  123,  124,  125,  126,  127,  128,  129,  130,  131,  132,  133,  134,  135,  136,  137
  138,  139,  140,  141,  142,  143,  144,  145,  222,  223,  300,  301,  302,  303,  304,  305
  306,  307,  308,  309,  310,  311,  312,  313,  314,  315,  670,  671,  672,  673,  674,  675
  676,  677,  678,  679,  680,  681,  682,  683,  684,  685,  686,  687,  688,  689,  690,  691
  692,  693,  694,  695,  696,  697,  698,  699,  700,  701,  702,  703,  704,  705,  706,  707
  708,  709,  853,  854,  855,  856,  857,  858,  859,  860,  861,  862,  863,  864,  865,  866
  867,  868,  869,  870,  871,  872,  873,  874,  875,  876,  877,  878,  879,  880,  881,  882
  883,  884,  885,  886,  887,  888,  889,  890,  891,  892,  893,  894,  895,  896,  897,  898
  899,  900,  901,  902,  903,  904,  905,  906,  907,  908,  909,  910,  911,  912,  913,  914
  915,  916,  917,  918,  919,  920,  921,  922,  923,  924,  925,  926,  927,  928,  929,  930
  931,  932,  933,  934,  935,  936,  937,  938,  939,  940,  941,  942,  943,  944,  945,  946
  947,  948,  949,  950,  951,  952,  953,  954,  955,  956,  957,  958,  959,  960,  961,  962
  963,  964,  965,  966,  967,  968,  969,  970,  971,  972,  973,  974,  975,  976,  977,  978
  979,  980,  981,  982,  983,  984,  985,  986,  987,  988,  989,  990,  991,  992,  993,  994
** ... 71 like lines cut
*Nset, nset=_PickedSet131, internal
 2,
*Elset, elset=_PickedSet131, internal, instance=DSS_Hole-1
    1,    2,    3,    4,    5,    6,    7,    8,    9,   10,   11,   12,   13,   14,   15,   16
   17,   18,   19,   20,   21,   22,   23,   24,   25,   26,   27,   28,   29,   30,   31,   32
   33,   34,   35,   36,   37,   38,   39,   40,   41,   42,   43,   44,   45,   46,   47,   48
   49,   50,   51,   52,   53,   54,   55,   56,   57,   58,   59,   60,   61,   62,   63,   64
   65,   66,   67,   68,   69,   70,   71,   72,   73,   74,   75,   76,   77,   78,   79,   80
   81,   82,   83,   84,   85,   86,   87,   88,   89,   90,   91,   92,   93,   94,   95,   96
   97,   98,   99,  100,  101,  102,  103,  104,  105,  106,  107,  108,  109,  110,  111,  112
  113,  114,  115,  116,  117,  118,  119,  120,  121,  122,  123,  124,  125,  126,  127,  128
  129,  130,  131,  132,  133,  134,  135,  136,  137,  138,  139,  140,  141,  142,  143,  144
  145,  146,  147,  148,  149,  150,  151,  152,  153,  154,  155,  156,  157,  158,  159,  160
  161,  162,  163,  164,  165,  166,  167,  168,  169,  170,  171,  172,  173,  174,  175,  176
  177,  178,  179,  180,  181,  182,  183,  184,  185,  186,  187,  188,  189,  190,  191,  192
  193,  194,  195,  196,  197,  198,  199,  200,  201,  202,  203,  204,  205,  206,  207,  208
  209,  210,  211,  212,  213,  214,  215,  216,  217,  218,  219,  220,  221,  222,  223,  224
  225,  226,  227,  228,  229,  230,  231,  232,  233,  234,  235,  236,  237,  238,  239,  240
  241,  242,  243,  244,  245,  246,  247,  248,  249,  250,  251,  252,  253,  254,  255,  256
  257,  258,  259,  260,  261,  262,  263,  264,  265,  266,  267,  268,  269,  270,  271,  272
  273,  274,  275,  276,  277,  278,  279,  280,  281,  282,  283,  284,  285,  286,  287,  288
  289,  290,  291,  292,  293,  294,  295,  296,  297,  298,  299,  300,  301,  302,  303,  304
  305,  306,  307,  308,  309,  310,  311,  312,  313,  314,  315,  316,  317,  318,  319,  320
** ... 48 like lines cut
*Nset, nset=_PickedSet184, internal, instance=GFRP_Hole-1
    3,    4,    6,    7,    9,   11,   23,   25,   31,   33,   39,   41,   49,   50,   51,   58
   62,   66,  160,  161,  162,  163,  164,  170,  171,  172,  173,  174,  207,  208,  209,  210
  211,  444,  445,  446,  447,  448,  576,  577,  578,  579,  580,  708,  709,  710,  711,  712
  853,  854,  855,  856,  857,  858,  859,  860,  861,  862,  873,  874,  875,  876,  877,  878
  879,  880,  881,  882,  914,  915,  916,  917,  918,  919,  920,  921,  922,  923, 1085, 1086
 1087, 1088, 1089, 1090, 1091, 1092, 1093, 1094, 1181, 1182, 1183, 1184, 1185, 1186, 1187, 1188
 1189, 1190, 1277, 1278, 1279, 1280, 1281, 1282, 1283, 1284, 1285, 1286
*Elset, elset=_PickedSet184, internal, instance=GFRP_Hole-1
   12,   24,   36,   48,   60,   72,   84,   96,  108,  120,  132,  144,  438,  450,  462,  474
  486,  498,  792,  804,  816,  828,  840,  852, 1146, 1158, 1170, 1182, 1194, 1206, 1560, 1572
 1584, 1596, 1608, 1620, 1632, 1644, 1656, 1668, 1680, 1692, 1704, 1716, 1728, 1740, 1752, 1764
 1776, 1788, 1800, 1812, 2341, 2353, 2365, 2377, 2389, 2401, 2413, 2425, 2437, 2449, 2461, 2990
 3002, 3014, 3026, 3038, 3050, 3062, 3074, 3086, 3098, 3110, 3639, 3651, 3663, 3675, 3687, 3699
 3711, 3723, 3735, 3747, 3759
*Elset, elset=_Half_cohesive1_S1, internal, instance=Adhesive_Hole-2, generate
   1,  650,    1
*Surface, type=ELEMENT, name=Half_cohesive1
_Half_cohesive1_S1, S1
*Elset, elset=_Half_cohesive2_S2, internal, instance=Adhesive_Hole-2, generate
   1,  650,    1
*Surface, type=ELEMENT, name=Half_cohesive2
_Half_cohesive2_S2, S2
*Elset, elset=_Half_tie1_S3, internal, instance=DSS_Hole-1
 4362, 4363, 4364, 4365, 4366, 4367, 4368, 4369, 4370, 4371, 4372, 4373, 4374, 4375, 4376, 4377
 4378, 4379, 4380, 4381, 4382, 4383, 4384, 4385, 4386, 4387, 4388, 4389, 4390, 4391, 4392, 4393
 4394, 4395, 4396, 4397, 4398, 4399, 4400, 4401, 4402, 4403, 4404, 4405, 4406, 4407, 4408, 4409
 8074, 8075, 8076, 8077, 8078, 8079, 8080, 8081, 8082, 8083, 8084, 8085, 8086, 8087, 8088, 8089
 8090, 8091, 8092, 8093, 8094, 8095, 8096, 8097, 8098, 8099, 8100, 8101, 8102, 8103, 8104, 8105
 8106, 8107, 8108, 8109, 8110, 8111, 8112, 8113, 8114, 8115, 8116, 8117, 8118, 8119, 8120, 8121
 8122, 8123, 8124, 8125, 8126, 8127, 8128, 8129, 8130, 8131, 8132, 8133, 8134, 8135, 8136, 8137
 8138, 8139, 8140, 8141, 8142, 8143, 8144, 8145, 8146, 8147, 8148, 8149, 8150, 8151, 8152, 8153
 8154, 8155, 8156, 8157, 8158, 8159, 8160, 8161, 8162, 8163, 8164, 8165, 8166, 8167, 8168, 8169
 8170, 8171, 8172, 8173, 8174, 8175, 8176, 8177, 8178, 8179, 8180, 8181, 8182, 8183, 8184, 8185
 8186, 8187, 8188, 8189, 8190, 8191, 8192, 8193, 8194, 8195, 8196, 8197, 8198, 8199, 8200, 8201
 8202, 8203, 8204, 8205, 8206, 8207, 8208, 8209, 8210, 8211, 8212, 8213, 8214, 8215, 8216, 8217
 8218, 8219, 8220, 8221, 8222, 8223, 8224, 8225, 8226, 8227, 8228, 8229, 8230, 8231, 8232, 8233
 8234, 8235, 8236, 8237, 8238, 8239, 8240, 8241, 8242, 8243, 8244, 8245, 8246, 8247, 8248, 8249
 8250, 8251, 8252, 8253, 8254, 8255, 8256, 8257, 8258, 8259, 8260, 8261, 8262, 8263, 8264, 8265
 8266, 8267, 8268, 8269, 8270, 8271, 8272, 8273, 8274, 8275, 8276, 8277, 8278, 8279, 8280, 8281
 8282, 8283, 8284, 8285, 8286, 8287, 8288, 8289, 8290, 8291, 8292, 8293, 8294, 8295, 8296, 8297
 8298, 8299, 8300, 8301, 8302, 8303, 8304, 8305, 8306, 8307, 8308, 8309, 8310, 8311, 8312, 8313
 8314, 8315, 8316, 8317, 8318, 8319, 8320, 8321, 8322, 8323, 8324, 8325, 8476, 8477, 8478
*Elset, elset=_Half_tie1_S4, internal, instance=DSS_Hole-1
 4410, 4411, 4412, 4413, 4934, 4935, 4936, 4937, 4938, 4939, 4940, 4941, 4942, 4943, 4944, 4945
 4946, 4947, 4948, 4949, 4950, 4951, 4952, 4953, 4954, 4955, 4956, 4957, 4958, 4959, 4960, 4961
 4962, 4963, 4964, 4965, 4966, 4967, 4968, 4969, 4970, 4971, 4972, 4973, 4974, 4975, 4976, 4977
 4978, 4979, 4980, 4981, 4982, 4983, 4984, 4985, 4986, 4987, 4988, 4989, 4990, 4991, 4992, 4993
 4994, 4995, 4996, 4997, 4998, 4999, 5000, 5001, 5002, 5003, 5004, 5005, 5006, 5007, 5008, 5009
 5010, 5011, 5012, 5013, 5014, 5015, 5016, 5017, 5018, 5019, 5020, 5021, 5022, 5023, 5024, 5025
 5026, 5027, 5028, 5029, 5030, 5031, 5032, 5033, 5034, 5035, 5036, 5037, 5038, 5039, 5040, 5041
 5042, 5043, 5044, 5045, 5046, 5047, 5048, 5049, 5050, 5051, 5052, 5053, 5054, 5055, 5056, 5057
 5058, 5059, 5060, 5061, 5062, 5063, 5064, 5065, 5066, 5067, 5068, 5069, 5070, 5071, 5072, 5073
 5074, 5075, 5076, 5077, 5078, 5079, 5080, 5081, 5082, 5083, 5084, 5085, 5086, 5087, 5088, 5089
 5090, 5091, 5092, 5093, 5094, 5095, 5096, 5097, 5098, 5099, 5100, 5101, 5102, 5103, 5104, 5105
 5106, 5107, 5108, 5109, 5110, 5111, 5112, 5113, 5114, 5115, 5116, 5117, 5118, 5119, 5120, 5121
 5122, 5123, 5124, 5125, 5126, 5127, 5128, 5129, 5130, 5131, 5132, 5133, 5134, 5135, 5136, 5137
 5138, 5139, 5140, 5141, 5142, 5143, 5144, 5145, 5146, 5147, 5148, 5149, 5150, 5151, 5152, 5153
 5154, 5155, 5156, 5157, 5158, 5159, 5160, 5161, 5162, 5163, 5164, 5165, 5166, 5167, 5168, 5169
 5170, 5171, 5172, 5173, 5174, 5175, 5176, 5177, 5178, 5179, 5180, 5181, 5182, 5183, 5184, 5185
 5186, 5187, 5188, 5189, 5190, 5191, 5192, 5193, 8326, 8327, 8328, 8329, 8330, 8331, 8332, 8333
 8334, 8335, 8336, 8337, 8338, 8339, 8340, 8341, 8342, 8343, 8344, 8345, 8346, 8347, 8348, 8349
 8350, 8351, 8352, 8353, 8354, 8355, 8356, 8357, 8358, 8359, 8360, 8361, 8362, 8363, 8364, 8365
 8366, 8367, 8368, 8369, 8370, 8371, 8372, 8373, 8374, 8375, 8376, 8377, 8378, 8379, 8380, 8381
 8382, 8383, 8384, 8385, 8386, 8387, 8388, 8473, 8474, 8475, 8479, 8480, 8481, 8482, 8483, 8484
 8485, 8486, 8487, 8488, 8489, 8490, 8491, 8492, 8493, 8494, 8495, 8496, 8497, 8498, 8499, 8500
 8501, 8502, 8503, 8504, 8505, 8506, 8507, 8508, 8509, 8510, 8511, 8512, 8513, 8514
*Surface, type=ELEMENT, name=Half_tie1
_Half_tie1_S3, S3
_Half_tie1_S4, S4
*Elset, elset=_Half_tie2_S5, internal, instance=GFRP_Hole-1
 5850, 5851, 5852, 5853, 5854, 5855, 5856, 5857, 5858, 5859, 5860, 5861, 5862, 5863, 5864, 5865
 5866, 5867, 5868, 5869, 5870, 5871, 5872, 5873, 5874, 5875, 5876, 5877, 5878, 5879, 5880, 5881
 5882, 5883, 5884, 5885, 5886, 5887, 5888, 5889, 5890, 5891, 5892, 5893, 5894, 5895, 5896, 5897
 5898, 5899, 5900, 5901, 5902, 5903, 5904, 5905, 5906, 5907, 5908, 5909, 5910, 5911, 5912, 5913
 5914, 5915, 5916, 5917, 5918, 5919, 5920, 5921, 5922, 5923, 5924, 5925, 5926, 5927, 5928, 5929
 5930, 5931, 5932, 5933, 5934, 5935, 5936, 5937, 5938, 5939, 5940, 5941, 5942, 5943, 5944, 5945
 5946, 5947, 5948, 5949, 5950, 5951, 5952, 5953, 5954, 5955, 5956, 5957, 5958, 5959, 5960, 5961
 5962, 5963, 5964, 5965, 5966, 5967, 5968, 5969, 7906, 7907, 7908, 7909, 7910, 7911, 7912, 7913
 7914, 7915, 7916, 7917, 7918, 7919, 7920, 7921, 7922, 7923, 7924, 7925, 7926, 7927, 7928, 7929
 7930, 7931, 7932, 7933, 7934, 7935, 7936, 7937, 7938, 7939, 7940, 7941, 7942, 7943, 7944, 7945
 7946, 7947, 7948, 7949, 7950, 7951, 7952, 7953, 7954, 7955, 7956, 7957, 7958, 7959, 7960, 7961
 7962, 7963, 7964, 7965, 7966, 7967, 7968, 7969, 7970, 7971, 7972, 7973, 7974, 7975, 7976, 7977
 7978, 7979, 7980, 7981, 7982, 7983, 7984, 7985, 7986, 7987, 7988, 7989, 7990, 7991, 7992, 7993
 7994, 7995, 7996, 7997, 7998, 7999, 8000, 8001, 8002, 8003, 8004, 8005, 8006, 8007, 8008, 8009
 8010, 8011, 8012, 8013, 8014, 8015, 8016, 8017, 8018, 8019, 8020, 8021, 8022, 8023, 8024, 8025
 8026, 8027, 8028, 8029, 8030, 8031, 8032, 8033, 8034, 8035, 8036, 8037, 8038, 8039, 8040, 8041
 8042, 8043, 8044, 8045, 8046, 8047, 8048, 8049, 8050, 8051, 8052, 8053, 8054, 8055, 8056, 8057
 8058, 8059, 8060, 8061, 8062, 8063, 8064, 8065, 8066, 8067, 8068, 8069, 8070, 8071, 8072, 8073
 8074, 8075, 8076, 8077, 8078, 8079, 8080, 8081, 8082, 8083, 8084, 8085, 8086, 8087, 8088, 8089
 8090, 8091, 8092, 8093, 8094, 8095, 8096, 8097, 8098, 8099, 8100, 8101, 8102, 8103, 8104, 8105
 8106, 8107, 8108, 8109, 8110, 8111, 8112, 8113, 8114, 8115, 8116, 8117, 8118, 8119, 8120, 8121
 8122, 8123, 8124, 8125
*Elset, elset=_Half_tie2_S1, internal, instance=GFRP_Hole-1
 8126, 8127, 8128, 8129, 8130, 8131, 8132, 8133, 8134, 8135, 8136, 8137, 8138, 8139, 8140, 8141
 8142, 8143, 8144, 8145, 8146, 8147, 8148, 8149, 8150, 8151, 8152, 8153, 8154, 8155, 8156, 8157
 8158, 8159, 8160, 8161, 8162, 8163, 8164, 8165, 8166, 8167, 8168, 8169, 8170, 8171, 8172, 8173
 8174, 8175, 8176, 8177, 8178, 8179, 8180, 8181, 8182, 8183, 8184, 8185, 8186, 8187, 8188, 8189
 8190, 8191, 8192, 8193, 8194, 8195, 8196, 8197, 8198, 8199, 8200, 8201, 8202, 8203, 8204, 8205
 8206, 8207, 8208, 8209, 8210, 8211, 8212, 8213, 8214, 8215, 8216, 8217, 8218, 8219, 8220, 8221
 8222, 8223, 8224, 8225, 8226, 8227, 8228, 8229, 8230, 8231, 8232, 8233, 8234, 8235, 8236, 8237
 8238, 8239, 8240, 8241, 8242, 8243, 8244, 8245, 8246, 8247, 8248, 8249, 8250, 8251, 8252, 8253
 8254, 8255, 8256, 8257, 8258, 8259, 8260, 8261, 8262, 8263, 8264, 8265, 8266, 8267, 8268, 8269
 8492, 8493, 8494, 8495, 8496, 8497, 8498, 8499, 8500, 8501, 8502, 8503, 8504, 8505, 8506, 8507
 8508, 8509, 8510, 8511, 8512, 8513, 8514, 8515, 8516, 8517, 8518, 8519, 8520, 8521, 8522, 8523
 8524, 8525, 8526, 8527, 8528, 8529, 8530, 8531, 8532, 8533, 8534, 8535, 8536, 8537, 8538, 8539
 8540, 8541, 8542, 8543, 8544, 8545, 8546, 8547, 8548, 8549, 8550, 8551, 8552, 8553, 8554, 8555
 8556, 8557, 8558, 8559, 8560, 8561, 8562, 8563, 8564, 8565, 8566, 8567, 8568, 8569, 8570, 8571
 8572, 8573, 8574, 8575, 8576, 8577, 8578, 8579, 8580, 8581, 8582, 8583, 8584, 8585, 8586, 8587
 8588, 8589, 8590, 8591, 8592, 8593, 8594, 8595, 8596, 8597, 8598, 8599, 8600, 8601, 8602, 8603
 8604, 8605, 8606, 8607, 8608, 8609, 8610, 8611, 8612, 8613, 8614, 8615, 8616, 8617, 8618, 8619
 8620, 8621, 8622, 8623, 8624, 8625, 8626, 8627, 8628, 8629, 8630, 8631, 8632, 8633, 8634, 8635
 8636, 8637, 8638, 8639, 8640, 8641, 8642, 8643, 8644, 8645, 8646, 8647, 8648, 8649, 8650, 8651
 8652, 8653, 8654, 8655, 8656, 8657, 8658, 8659, 8660, 8661, 8662, 8663, 8664, 8665, 8666, 8667
** ... 6 like lines cut
*Surface, type=ELEMENT, name=Half_tie2
_Half_tie2_S5, S5
_Half_tie2_S1, S1
*Surface, type=NODE, name=_PickedSet131_CNS_, internal
_PickedSet131, 1.
** Constraint: RP_Fixed
*Coupling, constraint name=RP_Fixed, ref node=RP_Fixed, surface=_PickedSet131_CNS_
*Kinematic
** Constraint: Tie1
*Tie, name=Tie1, adjust=yes, position tolerance=0.5, type=SURFACE TO SURFACE
Half_tie1, Half_cohesive1
** Constraint: Tie2
*Tie, name=Tie2, adjust=yes, position tolerance=0.5, type=SURFACE TO SURFACE
Half_tie2, Half_cohesive2
*End Assembly
** 
** ELEMENT CONTROLS
** 
*Section Controls, name=EC-1, DISTORTION CONTROL=YES, ELEMENT DELETION=YES, MAX DEGRADATION=1., hourglass=ENHANCED
1., 1., 1.
*Section Controls, name=EC-2, ELEMENT DELETION=YES, MAX DEGRADATION=0.99
1., 1., 1.
*Amplitude, name=Amp-1, definition=SMOOTH STEP
             0.,              0.,            0.01,              1.
*Amplitude, name=Amp-2, definition=SMOOTH STEP
             0.,              0.,             0.1,              1.
** 
** MATERIALS
** 
*Material, name=Bolts2_Preload
*Density
 7.9e-09,
*Elastic
193000., 0.3
*Expansion
 1e-05,
*Plastic
650.,   0.
850., 0.15
*Material, name=Cohesive0420
*Damage Initiation, criterion=QUADS
 55.8,50.,50.
*Damage Evolution, type=ENERGY, mixed mode behavior=POWER LAW, power=1.
 0.5, 2.1, 2.1
*Density
 1.4e-09,
*Elastic, type=TRACTION
3200.,1850.,1850.
*Material, name=Cohesive0422
*Damage Initiation, criterion=QUADS
 21.63, 17.9, 17.9
*Damage Evolution, type=ENERGY, mixed mode behavior=POWER LAW, power=1.
 0.43, 4.7, 4.7
*Density
 1.4e-09,
*Elastic, type=TRACTION
3700.,1120.,1120.
*Material, name=Cohesive0422-03
*Damage Initiation, criterion=QUADS
 21.63, 17.9, 17.9
*Damage Evolution, type=ENERGY, mixed mode behavior=POWER LAW, power=1.
 0.43, 2.1, 2.1
*Density
 1.4e-09,
*Elastic, type=TRACTION
4120.,1540.,1540.
*Material, name=Cohesive1
*Damage Initiation, criterion=QUADS
31.,20.,20.
*Damage Evolution, type=ENERGY
 0.3255,
*Density
 1.4e-09,
*Elastic, type=TRACTION
3200., 1185.2, 1185.2
*Material, name=DSS1
*Density
 7.85e-09,
*Elastic
200000., 0.3
*Plastic
612.,0.
*Material, name=VUMAT-GFRP
*Density
 1.921e-09,
*Depvar, delete=15
     22,
*User Material, constants=16
 0.0126, 0.0029, 0.0155, 0.0109, 0.0229, 0.0129, 0.0129, 42700.
 12072., 12072., 0.2629, 0.2629,   0.21,  4090.,  4090.,  4320.
*Material, name=VUMAT-GFRP-0422-02
*Density
 1.921e-09,
*Depvar, delete=15
     22,
*User Material, constants=16
 0.0157, 0.0741, 0.0029, 0.0264, 0.0365, 0.0222, 0.0222, 42700.
 12072., 12072., 0.2629, 0.2629,   0.21,  4090.,  4090.,  4320.
** 
** INTERACTION PROPERTIES
** 
*Surface Interaction, name=Fraction
*Friction
 0.3,
*Surface Behavior, pressure-overclosure=HARD
** 
** BOUNDARY CONDITIONS
** 
** Name: BC-1 Type: Symmetry/Antisymmetry/Encastre
*Boundary
RP_Fixed, ENCASTRE
** Name: BC-3 Type: Symmetry/Antisymmetry/Encastre
*Boundary
Quart1, YSYMM
** Name: BC-4 Type: Symmetry/Antisymmetry/Encastre
*Boundary
Quart2, ZSYMM
** 
** PREDEFINED FIELDS
** 
** Name: Predefined Field-1   Type: Temperature
*Initial Conditions, type=TEMPERATURE
Bolt_HalfHalf, 0.
** 
** INTERACTIONS
** 
** Interaction: Int-1
*Contact, op=NEW
*Contact Inclusions, ALL EXTERIOR
*Contact Property Assignment
 ,  , Fraction
** ----------------------------------------------------------------
** 
** STEP: Step-Pre
** 
*Step, name=Step-Pre, nlgeom=YES
*Dynamic, Explicit
, 0.01
*Bulk Viscosity
0.06, 1.2
** Mass Scaling: Semi-Automatic
**               Whole Model
*Fixed Mass Scaling, dt=5e-08, type=below min
** 
** PREDEFINED FIELDS
** 
** Name: Predefined Field-2   Type: Temperature
*Temperature, amplitude=Amp-1
Bolt_HalfHalf, -12.
** 
** OUTPUT REQUESTS
** 
*Restart, write, number interval=1, time marks=NO
** 
** FIELD OUTPUT: F-Output-1
** 
*Output, field, number interval=300
*Node Output
A, RF, U, V
*Element Output, directions=YES
DAMAGEC, DAMAGEFC, DAMAGEFT, DAMAGEMC, DAMAGEMT, DAMAGESHR, DAMAGET, EVF, LE, PE, PEEQ, PEEQVAVG, PEVAVG, S, SDEG, SDV
STATUS, SVAVG
*Contact Output
CSTRESS, 
** 
** HISTORY OUTPUT: H-Output-1
** 
*Output, history, variable=PRESELECT, frequency=1
*End Step
** ----------------------------------------------------------------
** 
** STEP: Step-Core
** 
*Step, name=Step-Core, nlgeom=YES
*Dynamic, Explicit
, 0.1
*Bulk Viscosity
0.06, 1.2
** Mass Scaling: Semi-Automatic
**               Whole Model
*Fixed Mass Scaling, dt=5e-08, type=below min
** 
** BOUNDARY CONDITIONS
** 
** Name: BC-2 Type: Displacement/Rotation
*Boundary, amplitude=Amp-2
_PickedSet184, 1, 1, 8.
** 
** OUTPUT REQUESTS
** 
*Restart, write, number interval=1, time marks=NO
** 
** FIELD OUTPUT: F-Output-1
** 
*Output, field, number interval=300
*Node Output
A, RF, U, V
*Element Output, directions=YES
DAMAGEC, DAMAGEFC, DAMAGEFT, DAMAGEMC, DAMAGEMT, DAMAGESHR, DAMAGET, EVF, LE, PE, PEEQ, PEEQVAVG, PEVAVG, S, SDEG, SDV
STATUS, SVAVG
*Contact Output
CSTRESS, 
** 
** HISTORY OUTPUT: H-Output-1
** 
*Output, history, variable=PRESELECT, frequency=1
*End Step
